(PID.TID 0000.0001) 
(PID.TID 0000.0001) // ======================================================
(PID.TID 0000.0001) //                      MITgcm UV
(PID.TID 0000.0001) //                      =========
(PID.TID 0000.0001) // ======================================================
(PID.TID 0000.0001) // execution environment starting up...
(PID.TID 0000.0001) 
(PID.TID 0000.0001) // MITgcmUV version:  checkpoint69c
(PID.TID 0000.0001) // Build user:        tshahriar
(PID.TID 0000.0001) // Build host:        sverdrup.oden.utexas.edu
(PID.TID 0000.0001) // Build date:        Wed Jul  9 11:51:09 AM CDT 2025
(PID.TID 0000.0001) 
(PID.TID 0000.0001) // =======================================================
(PID.TID 0000.0001) // Execution Environment parameter file "eedata"
(PID.TID 0000.0001) // =======================================================
(PID.TID 0000.0001) ># Example "eedata" file
(PID.TID 0000.0001) ># Lines beginning "#" are comments
(PID.TID 0000.0001) >#  nTx      :: No. threads per process in X
(PID.TID 0000.0001) >#  nTy      :: No. threads per process in Y
(PID.TID 0000.0001) ># debugMode :: print debug msg (sequence of S/R calls)
(PID.TID 0000.0001) > &EEPARMS
(PID.TID 0000.0001) > nTx=1,
(PID.TID 0000.0001) > nTy=1,
(PID.TID 0000.0001) > /
(PID.TID 0000.0001) ># Note: Some systems use & as the namelist terminator (as shown here).
(PID.TID 0000.0001) >#       Other systems use a / character.
(PID.TID 0000.0001) 
(PID.TID 0000.0001) // =======================================================
(PID.TID 0000.0001) // Computational Grid Specification ( see files "SIZE.h" )
(PID.TID 0000.0001) //                                  ( and "eedata"       )
(PID.TID 0000.0001) // =======================================================
(PID.TID 0000.0001)      nPx =    1 ; /* No. processes in X */
(PID.TID 0000.0001)      nPy =    1 ; /* No. processes in Y */
(PID.TID 0000.0001)      nSx =    1 ; /* No. tiles in X per process */
(PID.TID 0000.0001)      nSy =    1 ; /* No. tiles in Y per process */
(PID.TID 0000.0001)      sNx =   62 ; /* Tile size in X */
(PID.TID 0000.0001)      sNy =   62 ; /* Tile size in Y */
(PID.TID 0000.0001)      OLx =    4 ; /* Tile overlap distance in X */
(PID.TID 0000.0001)      OLy =    4 ; /* Tile overlap distance in Y */
(PID.TID 0000.0001)      nTx =    1 ; /* No. threads in X per process */
(PID.TID 0000.0001)      nTy =    1 ; /* No. threads in Y per process */
(PID.TID 0000.0001)       Nr =   31 ; /* No. levels in the vertical   */
(PID.TID 0000.0001)       Nx =   62 ; /* Total domain size in X ( = nPx*nSx*sNx ) */
(PID.TID 0000.0001)       Ny =   62 ; /* Total domain size in Y ( = nPy*nSy*sNy ) */
(PID.TID 0000.0001)   nTiles =    1 ; /* Total no. tiles per process ( = nSx*nSy ) */
(PID.TID 0000.0001)   nProcs =    1 ; /* Total no. processes ( = nPx*nPy ) */
(PID.TID 0000.0001) nThreads =    1 ; /* Total no. threads per process ( = nTx*nTy ) */
(PID.TID 0000.0001) usingMPI =    F ; /* Flag used to control whether MPI is in use */
(PID.TID 0000.0001)                   /*  note: To execute a program with MPI calls */
(PID.TID 0000.0001)                   /*  it must be launched appropriately e.g     */
(PID.TID 0000.0001)                   /*  "mpirun -np 64 ......"                    */
(PID.TID 0000.0001) useCoupler=   F ; /* Flag used to control communications with   */
(PID.TID 0000.0001)                   /*  other model components, through a coupler */
(PID.TID 0000.0001) useNest2W_parent =    F ;/* Control 2-W Nesting comm */
(PID.TID 0000.0001) useNest2W_child  =    F ;/* Control 2-W Nesting comm */
(PID.TID 0000.0001) debugMode =    F ; /* print debug msg. (sequence of S/R calls)  */
(PID.TID 0000.0001) printMapIncludesZeros=    F ; /* print zeros in Std.Output maps */
(PID.TID 0000.0001) maxLengthPrt1D=   65 /* maxLength of 1D array printed to StdOut */
(PID.TID 0000.0001) 
(PID.TID 0000.0001) // ======================================================
(PID.TID 0000.0001) // Mapping of tiles to threads
(PID.TID 0000.0001) // ======================================================
(PID.TID 0000.0001) // -o- Thread   1, tiles (   1:   1,   1:   1)
(PID.TID 0000.0001) 
(PID.TID 0000.0001) // ======================================================
(PID.TID 0000.0001) // Tile <-> Tile connectvity table
(PID.TID 0000.0001) // ======================================================
(PID.TID 0000.0001) // Tile number: 000001 (process no. = 000000)
(PID.TID 0000.0001) //        WEST: Tile = 000001, Process = 000000, Comm = put
(PID.TID 0000.0001) //                bi = 000001, bj = 000001
(PID.TID 0000.0001) //        EAST: Tile = 000001, Process = 000000, Comm = put
(PID.TID 0000.0001) //                bi = 000001, bj = 000001
(PID.TID 0000.0001) //       SOUTH: Tile = 000001, Process = 000000, Comm = put
(PID.TID 0000.0001) //                bi = 000001, bj = 000001
(PID.TID 0000.0001) //       NORTH: Tile = 000001, Process = 000000, Comm = put
(PID.TID 0000.0001) //                bi = 000001, bj = 000001
(PID.TID 0000.0001) 
(PID.TID 0000.0001)  INI_PARMS: opening model parameter file "data"
(PID.TID 0000.0001)  OPEN_COPY_DATA_FILE: opening file data
(PID.TID 0000.0001) // =======================================================
(PID.TID 0000.0001) // Parameter file "data"
(PID.TID 0000.0001) // =======================================================
(PID.TID 0000.0001) ># Model parameters
(PID.TID 0000.0001) ># Continuous equation parameters
(PID.TID 0000.0001) > &PARM01
(PID.TID 0000.0001) > tRef=23.,23.,23.,22.,21.,20.,19.,17.,16.,15.,14.,12.,11.,10.,9.,8.,
(PID.TID 0000.0001) >      7.,6.,6.,5.,5.,4.,4.,3.,3.,2.,2.,1.,1.,1.,1.,
(PID.TID 0000.0001) > sRef=31*34.5,
(PID.TID 0000.0001) > no_slip_sides=.TRUE.,
(PID.TID 0000.0001) > no_slip_bottom=.TRUE.,
(PID.TID 0000.0001) > bottomDragQuadratic=0.0021,
(PID.TID 0000.0001) > rhonil=1027.5,
(PID.TID 0000.0001) > rhoConstFresh=999.8,
(PID.TID 0000.0001) > eosType='JMD95Z',
(PID.TID 0000.0001) > hFacMinDr=50.,
(PID.TID 0000.0001) > hFacMin=0.3,
(PID.TID 0000.0001) > hFacInf=0.1,
(PID.TID 0000.0001) > hFacSup=5.,
(PID.TID 0000.0001) > implicitFreeSurface=.TRUE.,
(PID.TID 0000.0001) > implicitDiffusion=.TRUE.,
(PID.TID 0000.0001) > implicitViscosity=.TRUE.,
(PID.TID 0000.0001) > viscC4Leith=2.15,
(PID.TID 0000.0001) > viscC4Leithd=2.15,
(PID.TID 0000.0001) > viscA4GridMax=0.8,
(PID.TID 0000.0001) > useAreaViscLength=.TRUE.,
(PID.TID 0000.0001) > tempAdvScheme=33,
(PID.TID 0000.0001) > saltAdvScheme=33,
(PID.TID 0000.0001) > StaggerTimeStep=.TRUE.,
(PID.TID 0000.0001) > vectorInvariantMomentum=.TRUE.,
(PID.TID 0000.0001) > exactConserv=.TRUE.,
(PID.TID 0000.0001) > debuglevel=0,
(PID.TID 0000.0001) > useSingleCPUio=.TRUE.,
(PID.TID 0000.0001) > tempForcing = .TRUE.,
(PID.TID 0000.0001) > saltForcing = .FALSE.,
(PID.TID 0000.0001) > saltStepping=.TRUE.,
(PID.TID 0000.0001) > /
(PID.TID 0000.0001) >
(PID.TID 0000.0001) ># Elliptic solver parameters
(PID.TID 0000.0001) > &PARM02
(PID.TID 0000.0001) > cg2dTargetResidual=1.E-5,
(PID.TID 0000.0001) > cg2dMaxIters=100,
(PID.TID 0000.0001) > /
(PID.TID 0000.0001) >
(PID.TID 0000.0001) ># Time stepping parameters
(PID.TID 0000.0001) > &PARM03
(PID.TID 0000.0001) > startTime=0.,
(PID.TID 0000.0001) > deltaT=1200.,
(PID.TID 0000.0001) >#-for longer run
(PID.TID 0000.0001) ># pChkptFreq=622080000.,
(PID.TID 0000.0001) ># chkptFreq=155520000.,
(PID.TID 0000.0001) ># ----------
(PID.TID 0000.0001) >#-for shorter run
(PID.TID 0000.0001) > pChkptFreq=31104000.,
(PID.TID 0000.0001) > chkptFreq=2592000.,
(PID.TID 0000.0001) >#------
(PID.TID 0000.0001) > dumpFreq=0,
(PID.TID 0000.0001) > monitorFreq=2592000.,
(PID.TID 0000.0001) > monitorSelect=2,
(PID.TID 0000.0001) > tauThetaClimRelax=2592000.,
(PID.TID 0000.0001) >#-run for 1 yrs
(PID.TID 0000.0001) > endTime = 31104000.,
(PID.TID 0000.0001) > /
(PID.TID 0000.0001) >
(PID.TID 0000.0001) ># Gridding parameters
(PID.TID 0000.0001) > &PARM04
(PID.TID 0000.0001) > usingSphericalPolarGrid=.TRUE.,
(PID.TID 0000.0001) > delX=62*1.,
(PID.TID 0000.0001) > delY=62*1.,
(PID.TID 0000.0001) > xgOrigin=-1.,
(PID.TID 0000.0001) > ygOrigin=14.,
(PID.TID 0000.0001) > delR=10., 11.33, 12.83, 14.53, 16.45, 18.63, 21.1, 23.9, 27.07, 30.65,
(PID.TID 0000.0001) >      34.72, 39.32, 44.53, 50.43, 57.12, 64.69, 73.26, 82.97, 93.97,
(PID.TID 0000.0001) >      106.42, 120.53, 136.5, 154.59, 175.08, 198.29, 224.57, 254.34,
(PID.TID 0000.0001) >      288.05, 326.23, 369.47, 418.43,
(PID.TID 0000.0001) > /
(PID.TID 0000.0001) >
(PID.TID 0000.0001) > &PARM05
(PID.TID 0000.0001) > bathyFile='bathy.bin',
(PID.TID 0000.0001) > zonalWindFile='wind.bin',
(PID.TID 0000.0001) > thetaClimFile='SST_relax.bin',
(PID.TID 0000.0001) > /
(PID.TID 0000.0001) 
(PID.TID 0000.0001)  INI_PARMS ; starts to read PARM01
(PID.TID 0000.0001)  INI_PARMS ; read PARM01 : OK
(PID.TID 0000.0001)  INI_PARMS ; starts to read PARM02
(PID.TID 0000.0001)  INI_PARMS ; read PARM02 : OK
(PID.TID 0000.0001)  INI_PARMS ; starts to read PARM03
(PID.TID 0000.0001)  INI_PARMS ; read PARM03 : OK
(PID.TID 0000.0001)  INI_PARMS ; starts to read PARM04
(PID.TID 0000.0001)  INI_PARMS ; read PARM04 : OK
(PID.TID 0000.0001)  INI_PARMS ; starts to read PARM05
(PID.TID 0000.0001)  INI_PARMS ; read PARM05 : OK
(PID.TID 0000.0001)  INI_PARMS: finished reading file "data"
(PID.TID 0000.0001)  PACKAGES_BOOT: opening data.pkg
(PID.TID 0000.0001)  OPEN_COPY_DATA_FILE: opening file data.pkg
(PID.TID 0000.0001) // =======================================================
(PID.TID 0000.0001) // Parameter file "data.pkg"
(PID.TID 0000.0001) // =======================================================
(PID.TID 0000.0001) ># Packages (lines beginning "#" are comments)
(PID.TID 0000.0001) > &PACKAGES
(PID.TID 0000.0001) > useDiagnostics=.TRUE.,
(PID.TID 0000.0001) > useGMRedi=.TRUE.,
(PID.TID 0000.0001) > useGrdchk=.TRUE.,
(PID.TID 0000.0001) >
(PID.TID 0000.0001) > /
(PID.TID 0000.0001) 
(PID.TID 0000.0001)  PACKAGES_BOOT: finished reading data.pkg
(PID.TID 0000.0001)  PACKAGES_BOOT: On/Off package Summary
 --------  pkgs with a standard "usePKG" On/Off switch in "data.pkg":  --------
 pkg/gmredi               compiled   and   used ( useGMRedi                = T )
 pkg/autodiff             compiled   and   used ( useAUTODIFF              = T )
 pkg/grdchk               compiled   and   used ( useGrdchk                = T )
 pkg/ctrl                 compiled   and   used ( useCTRL                  = T )
 pkg/diagnostics          compiled   and   used ( useDiagnostics           = T )
 -------- pkgs without standard "usePKG" On/Off switch in "data.pkg":  --------
 pkg/generic_advdiff      compiled   and   used ( useGAD                   = T )
 pkg/mom_common           compiled   and   used ( momStepping              = T )
 pkg/mom_vecinv           compiled   and   used ( +vectorInvariantMomentum = T )
 pkg/mom_fluxform         compiled but not used ( & not vectorInvariantMom = F )
 pkg/monitor              compiled   and   used ( monitorFreq > 0.         = T )
 pkg/debug                compiled but not used ( debugMode                = F )
 pkg/rw                   compiled   and   used
 pkg/mdsio                compiled   and   used
 pkg/autodiff             compiled   and   used
 pkg/cost                 compiled   and   used
(PID.TID 0000.0001)  PACKAGES_BOOT: End of package Summary
(PID.TID 0000.0001) 
(PID.TID 0000.0001)  GM_READPARMS: opening data.gmredi
(PID.TID 0000.0001)  OPEN_COPY_DATA_FILE: opening file data.gmredi
(PID.TID 0000.0001) // =======================================================
(PID.TID 0000.0001) // Parameter file "data.gmredi"
(PID.TID 0000.0001) // =======================================================
(PID.TID 0000.0001) ># GM+Redi package parameters:
(PID.TID 0000.0001) >#     GM_Small_Number  :: epsilon used in computing the slope
(PID.TID 0000.0001) >#     GM_slopeSqCutoff :: slope^2 cut-off value
(PID.TID 0000.0001) >
(PID.TID 0000.0001) >#-from MOM :
(PID.TID 0000.0001) ># GM_background_K: 	G & Mc.W  diffusion coefficient
(PID.TID 0000.0001) ># GM_maxSlope    :	max slope of isopycnals
(PID.TID 0000.0001) ># GM_Scrit       :	transition for scaling diffusion coefficient
(PID.TID 0000.0001) ># GM_Sd          :	half width scaling for diffusion coefficient
(PID.TID 0000.0001) ># GM_taper_scheme:	slope clipping or one of the tapering schemes
(PID.TID 0000.0001) ># GM_Kmin_horiz  :	horizontal diffusion minimum value
(PID.TID 0000.0001) >
(PID.TID 0000.0001) >#-Option parameters (needs to "define" options in GMREDI_OPTIONS.h")
(PID.TID 0000.0001) ># GM_isopycK     :	isopycnal diffusion coefficient (default=GM_background_K)
(PID.TID 0000.0001) ># GM_AdvForm     :	turn on GM Advective form       (default=Skew flux form)
(PID.TID 0000.0001) >
(PID.TID 0000.0001) > &GM_PARM01
(PID.TID 0000.0001) >  GM_Small_Number  = 1.D-20,
(PID.TID 0000.0001) >  GM_slopeSqCutoff = 1.D+08,
(PID.TID 0000.0001) >  GM_AdvForm         = .FALSE.,
(PID.TID 0000.0001) >#  GM_isopycK         = 1.1D+3,
(PID.TID 0000.0001) >#  GM_background_K    = 0.9D+3,
(PID.TID 0000.0001) >  GM_background_K    = 1.D+3,
(PID.TID 0000.0001) >  GM_taper_scheme    = 'dm95',
(PID.TID 0000.0001) >  GM_maxSlope        = 1.D-2,
(PID.TID 0000.0001) >  GM_Kmin_horiz      = 50.,
(PID.TID 0000.0001) >  GM_Scrit           = 4.D-3,
(PID.TID 0000.0001) >  GM_Sd              = 1.D-3,
(PID.TID 0000.0001) >#  GM_Visbeck_alpha   = 1.5D-2,
(PID.TID 0000.0001) >  GM_Visbeck_alpha   = 0.,
(PID.TID 0000.0001) >  GM_Visbeck_length  = 2.D+5,
(PID.TID 0000.0001) >  GM_Visbeck_depth   = 1.D+3,
(PID.TID 0000.0001) >  GM_Visbeck_maxval_K= 2.5D+3,
(PID.TID 0000.0001) > /
(PID.TID 0000.0001) >
(PID.TID 0000.0001) >
(PID.TID 0000.0001) 
(PID.TID 0000.0001)  GM_READPARMS: finished reading data.gmredi
(PID.TID 0000.0001) AUTODIFF_READPARMS: opening data.autodiff
(PID.TID 0000.0001)  OPEN_COPY_DATA_FILE: opening file data.autodiff
(PID.TID 0000.0001) // =======================================================
(PID.TID 0000.0001) // Parameter file "data.autodiff"
(PID.TID 0000.0001) // =======================================================
(PID.TID 0000.0001) ># =========================
(PID.TID 0000.0001) ># pkg AUTODIFF parameters :
(PID.TID 0000.0001) ># =========================
(PID.TID 0000.0001) >#  inAdExact :: get an exact adjoint (no approximation) (def=.True.)
(PID.TID 0000.0001) >#
(PID.TID 0000.0001) > &AUTODIFF_PARM01
(PID.TID 0000.0001) ># inAdExact = .FALSE.,
(PID.TID 0000.0001) ># useKPPinAdMode = .FALSE.,
(PID.TID 0000.0001) ># useGMRediInAdMode = .FALSE.,
(PID.TID 0000.0001) > /
(PID.TID 0000.0001) 
(PID.TID 0000.0001) AUTODIFF_READPARMS: finished reading data.autodiff
(PID.TID 0000.0001) // ===================================
(PID.TID 0000.0001) // AUTODIFF parameters :
(PID.TID 0000.0001) // ===================================
(PID.TID 0000.0001) inAdExact = /* get an exact adjoint (no approximation) */
(PID.TID 0000.0001)                   T
(PID.TID 0000.0001)     ;
(PID.TID 0000.0001) useApproxAdvectionInAdMode = /* approximate AD-advection */
(PID.TID 0000.0001)                   F
(PID.TID 0000.0001)     ;
(PID.TID 0000.0001) cg2dFullAdjoint = /* use full hand written cg2d adjoint (no approximation) */
(PID.TID 0000.0001)                   F
(PID.TID 0000.0001)     ;
(PID.TID 0000.0001) useKPPinAdMode = /* use KPP in adjoint mode */
(PID.TID 0000.0001)                   F
(PID.TID 0000.0001)     ;
(PID.TID 0000.0001) useGMRediInAdMode = /* use GMRedi in adjoint mode */
(PID.TID 0000.0001)                   T
(PID.TID 0000.0001)     ;
(PID.TID 0000.0001) useSEAICEinAdMode = /* use SEAICE in adjoint mode */
(PID.TID 0000.0001)                   F
(PID.TID 0000.0001)     ;
(PID.TID 0000.0001) useGGL90inAdMode = /* use GGL90 in adjoint mode */
(PID.TID 0000.0001)                   F
(PID.TID 0000.0001)     ;
(PID.TID 0000.0001) useSALT_PLUMEinAdMode = /* use SALT_PLUME in adjoint mode */
(PID.TID 0000.0001)                   F
(PID.TID 0000.0001)     ;
(PID.TID 0000.0001) dumpAdVarExch = /* control adexch before dumpinp */
(PID.TID 0000.0001)                       2
(PID.TID 0000.0001)     ;
(PID.TID 0000.0001) mon_AdVarExch = /* control adexch before monitor */
(PID.TID 0000.0001)                       2
(PID.TID 0000.0001)     ;
(PID.TID 0000.0001) viscFacInFw = /* viscosity factor for forward model */
(PID.TID 0000.0001)                 1.000000000000000E+00
(PID.TID 0000.0001)     ;
(PID.TID 0000.0001) viscFacInAd = /* viscosity factor for adjoint */
(PID.TID 0000.0001)                 1.000000000000000E+00
(PID.TID 0000.0001)     ;
(PID.TID 0000.0001) SIregFacInAd = /* sea ice factor for adjoint model */
(PID.TID 0000.0001)                 1.234567000000000E+05
(PID.TID 0000.0001)     ;
(PID.TID 0000.0001) SIregFacInFw = /* sea ice factor for forward model */
(PID.TID 0000.0001)                 1.234567000000000E+05
(PID.TID 0000.0001)     ;
(PID.TID 0000.0001) 
(PID.TID 0000.0001) OPTIM_READPARMS: opening data.optim
(PID.TID 0000.0001)  OPEN_COPY_DATA_FILE: opening file data.optim
(PID.TID 0000.0001) // =======================================================
(PID.TID 0000.0001) // Parameter file "data.optim"
(PID.TID 0000.0001) // =======================================================
(PID.TID 0000.0001) >#
(PID.TID 0000.0001) ># ********************************
(PID.TID 0000.0001) ># Off-line optimization parameters
(PID.TID 0000.0001) ># ********************************
(PID.TID 0000.0001) > &OPTIM
(PID.TID 0000.0001) > optimcycle=0,
(PID.TID 0000.0001) > /
(PID.TID 0000.0001) 
(PID.TID 0000.0001) OPTIM_READPARMS: finished reading data.optim
(PID.TID 0000.0001) CTRL_READPARMS: opening data.ctrl
(PID.TID 0000.0001)  OPEN_COPY_DATA_FILE: opening file data.ctrl
(PID.TID 0000.0001) // =======================================================
(PID.TID 0000.0001) // Parameter file "data.ctrl"
(PID.TID 0000.0001) // =======================================================
(PID.TID 0000.0001) ># *********************
(PID.TID 0000.0001) ># ECCO controlvariables
(PID.TID 0000.0001) ># *********************
(PID.TID 0000.0001) > &CTRL_NML
(PID.TID 0000.0001) ># doSinglePrecTapelev=.TRUE.,
(PID.TID 0000.0001) > /
(PID.TID 0000.0001) >#
(PID.TID 0000.0001) ># *********************
(PID.TID 0000.0001) ># names for ctrl_pack/unpack
(PID.TID 0000.0001) ># *********************
(PID.TID 0000.0001) > &CTRL_PACKNAMES
(PID.TID 0000.0001) > /
(PID.TID 0000.0001) >#
(PID.TID 0000.0001) ># *********************
(PID.TID 0000.0001) ># names for CTRL_GENARR, CTRL_GENTIM
(PID.TID 0000.0001) ># *********************
(PID.TID 0000.0001) > &CTRL_NML_GENARR
(PID.TID 0000.0001) > xx_genarr3d_file(1)       = 'xx_theta',
(PID.TID 0000.0001) > xx_genarr3d_weight(1)     = 'ones_64b.bin',
(PID.TID 0000.0001) > xx_genarr3d_bounds(1:5,1) = -2.,-1.9,39.,40.,5.,
(PID.TID 0000.0001) >#
(PID.TID 0000.0001) > xx_genarr3d_file(2)       = 'xx_salt',
(PID.TID 0000.0001) > xx_genarr3d_weight(2)     = 'ones_64b.bin',
(PID.TID 0000.0001) > xx_genarr3d_bounds(1:5,2) = 29.,29.5,40.5,41.,5.,
(PID.TID 0000.0001) >#
(PID.TID 0000.0001) > /
(PID.TID 0000.0001) 
(PID.TID 0000.0001) CTRL_READPARMS: finished reading data.ctrl
(PID.TID 0000.0001) read-write ctrl files from current run directory
(PID.TID 0000.0001) COST_READPARMS: opening data.cost
(PID.TID 0000.0001)  OPEN_COPY_DATA_FILE: opening file data.cost
(PID.TID 0000.0001) // =======================================================
(PID.TID 0000.0001) // Parameter file "data.cost"
(PID.TID 0000.0001) // =======================================================
(PID.TID 0000.0001) >#
(PID.TID 0000.0001) >#
(PID.TID 0000.0001) ># ******************
(PID.TID 0000.0001) ># cost function
(PID.TID 0000.0001) ># ******************
(PID.TID 0000.0001) > &COST_NML
(PID.TID 0000.0001) >  mult_atl = 1.,
(PID.TID 0000.0001) > /
(PID.TID 0000.0001) 
(PID.TID 0000.0001) COST_READPARMS: finished reading data.cost
(PID.TID 0000.0001) // =======================================================
(PID.TID 0000.0001) // cost configuration  >>> START <<<
(PID.TID 0000.0001) // =======================================================
(PID.TID 0000.0001) lastinterval =   /* cost interval over which to average ( s ). */
(PID.TID 0000.0001)                 2.592000000000000E+06
(PID.TID 0000.0001)     ;
(PID.TID 0000.0001) cost_mask_file = /* file name of cost mask file */
(PID.TID 0000.0001)               ''
(PID.TID 0000.0001)     ;
(PID.TID 0000.0001) // =======================================================
(PID.TID 0000.0001) // cost configuration  >>> END <<<
(PID.TID 0000.0001) // =======================================================
(PID.TID 0000.0001) 
(PID.TID 0000.0001) GRDCHK_READPARMS: opening data.grdchk
(PID.TID 0000.0001)  OPEN_COPY_DATA_FILE: opening file data.grdchk
(PID.TID 0000.0001) // =======================================================
(PID.TID 0000.0001) // Parameter file "data.grdchk"
(PID.TID 0000.0001) // =======================================================
(PID.TID 0000.0001) >
(PID.TID 0000.0001) ># *******************
(PID.TID 0000.0001) ># ECCO gradient check
(PID.TID 0000.0001) ># *******************
(PID.TID 0000.0001) > &GRDCHK_NML
(PID.TID 0000.0001) > grdchk_eps       = 1.d-5,
(PID.TID 0000.0001) ># nbeg             = 4,
(PID.TID 0000.0001) > iGloPos          = 4,
(PID.TID 0000.0001) > jGloPos          = 8,
(PID.TID 0000.0001) > kGloPos          = 1,
(PID.TID 0000.0001) > nstep            = 1,
(PID.TID 0000.0001) > nend             = 4,
(PID.TID 0000.0001) > grdchkvarname    = "xx_theta",
(PID.TID 0000.0001) > /
(PID.TID 0000.0001) 
(PID.TID 0000.0001) GRDCHK_READPARMS: finished reading data.grdchk
(PID.TID 0000.0001)  DIAGNOSTICS_READPARMS: opening data.diagnostics
(PID.TID 0000.0001)  OPEN_COPY_DATA_FILE: opening file data.diagnostics
(PID.TID 0000.0001) // =======================================================
(PID.TID 0000.0001) // Parameter file "data.diagnostics"
(PID.TID 0000.0001) // =======================================================
(PID.TID 0000.0001) ># Diagnostic Package Choices
(PID.TID 0000.0001) >#--------------------
(PID.TID 0000.0001) >#  dumpAtLast (logical): always write output at the end of simulation (default=F)
(PID.TID 0000.0001) >#  diag_mnc   (logical): write to NetCDF files (default=useMNC)
(PID.TID 0000.0001) >#--for each output-stream:
(PID.TID 0000.0001) >#  fileName(n) : prefix of the output file name (max 80c long) for outp.stream n
(PID.TID 0000.0001) >#  frequency(n):< 0 : write snap-shot output every |frequency| seconds
(PID.TID 0000.0001) >#               > 0 : write time-average output every frequency seconds
(PID.TID 0000.0001) >#  timePhase(n)     : write at time = timePhase + multiple of |frequency|
(PID.TID 0000.0001) >#    averagingFreq  : frequency (in s) for periodic averaging interval
(PID.TID 0000.0001) >#    averagingPhase : phase     (in s) for periodic averaging interval
(PID.TID 0000.0001) >#    repeatCycle    : number of averaging intervals in 1 cycle
(PID.TID 0000.0001) >#  levels(:,n) : list of levels to write to file (Notes: declared as REAL)
(PID.TID 0000.0001) >#                when this entry is missing, select all common levels of this list
(PID.TID 0000.0001) >#  fields(:,n) : list of selected diagnostics fields (8.c) in outp.stream n
(PID.TID 0000.0001) >#                (see "available_diagnostics.log" file for the full list of diags)
(PID.TID 0000.0001) >#  missing_value(n) : missing value for real-type fields in output file "n"
(PID.TID 0000.0001) >#  fileFlags(n)     : specific code (8c string) for output file "n"
(PID.TID 0000.0001) >#--------------------
(PID.TID 0000.0001) > &DIAGNOSTICS_LIST
(PID.TID 0000.0001) >  fields(1:3,1)  = 'ETAN    ','TRELAX  ','MXLDEPTH',
(PID.TID 0000.0001) >  fileName(1) = 'surfDiag',
(PID.TID 0000.0001) >  frequency(1) = 432000.,
(PID.TID 0000.0001) >
(PID.TID 0000.0001) >  fields(1:12,2)  = 'THETA   ','PHIHYD  ',
(PID.TID 0000.0001) >                   'UVEL    ','VVEL    ','WVEL    ',
(PID.TID 0000.0001) >                   'THETASQ', 'UVELSQ', 'VVELSQ', 'WVELSQ',
(PID.TID 0000.0001) >                   'PhiVEL', 'PsiVEL', 'momKE'
(PID.TID 0000.0001) ># did not specify levels => all levels are selected
(PID.TID 0000.0001) >   fileName(2) = 'dynDiag',
(PID.TID 0000.0001) >  frequency(2) = 432000.,
(PID.TID 0000.0001) > /
(PID.TID 0000.0001) >
(PID.TID 0000.0001) >#---------------------------------------
(PID.TID 0000.0001) >#- Eddy-permitting run, diagnose vorticity (not computed when using uniform Ah)
(PID.TID 0000.0001) ># fields(1:2,3) = 'momVort3', 'momHDiv ',
(PID.TID 0000.0001) ># frequency(3) = 86400.,
(PID.TID 0000.0001) ># filename(3) = 'state_vort',
(PID.TID 0000.0001) ># &
(PID.TID 0000.0001) >
(PID.TID 0000.0001) ># GM diagnostics
(PID.TID 0000.0001) >#- Note: comment out this diagnostics list below if useGMRedi=.FALSE.
(PID.TID 0000.0001) >#        or you will get warnings messages in STDERR
(PID.TID 0000.0001) >  fields(1:2,3) = 'GM_PsiX ', 'GM_PsiY ',
(PID.TID 0000.0001) >  frequency(3) = 432000.,
(PID.TID 0000.0001) >  filename(3) = 'GM_diags',
(PID.TID 0000.0001) >
(PID.TID 0000.0001) >
(PID.TID 0000.0001) ># Parameter for Diagnostics of per level statistics:
(PID.TID 0000.0001) >#--------------------
(PID.TID 0000.0001) >#  diagSt_mnc (logical): write stat-diags to NetCDF files (default=diag_mnc)
(PID.TID 0000.0001) >#  diagSt_regMaskFile : file containing the region-mask to read-in
(PID.TID 0000.0001) >#  nSetRegMskFile   : number of region-mask sets within the region-mask file
(PID.TID 0000.0001) >#  set_regMask(i)   : region-mask set-index that identifies the region "i"
(PID.TID 0000.0001) >#  val_regMask(i)   : region "i" identifier value in the region mask
(PID.TID 0000.0001) >#--for each output-stream:
(PID.TID 0000.0001) >#  stat_fName(n) : prefix of the output file name (max 80c long) for outp.stream n
(PID.TID 0000.0001) >#  stat_freq(n):< 0 : write snap-shot output every |stat_freq| seconds
(PID.TID 0000.0001) >#               > 0 : write time-average output every stat_freq seconds
(PID.TID 0000.0001) >#  stat_phase(n)    : write at time = stat_phase + multiple of |stat_freq|
(PID.TID 0000.0001) >#  stat_region(:,n) : list of "regions" (default: 1 region only=global)
(PID.TID 0000.0001) >#  stat_fields(:,n) : list of selected diagnostics fields (8.c) in outp.stream n
(PID.TID 0000.0001) >#                (see "available_diagnostics.log" file for the full list of diags)
(PID.TID 0000.0001) >#--------------------
(PID.TID 0000.0001) > &DIAG_STATIS_PARMS
(PID.TID 0000.0001) >  stat_fields(1:2,1) = 'THETA   ','TRELAX  ',
(PID.TID 0000.0001) >  stat_fName(1) = 'dynStDiag',
(PID.TID 0000.0001) >  stat_freq(1) = 432000.,
(PID.TID 0000.0001) > /
(PID.TID 0000.0001) 
(PID.TID 0000.0001) S/R DIAGNOSTICS_READPARMS, read namelist "diagnostics_list": start
(PID.TID 0000.0001) S/R DIAGNOSTICS_READPARMS, read namelist "diagnostics_list": OK
(PID.TID 0000.0001) S/R DIAGNOSTICS_READPARMS, read namelist "DIAG_STATIS_PARMS": start
(PID.TID 0000.0001) S/R DIAGNOSTICS_READPARMS, read namelist "DIAG_STATIS_PARMS": OK
(PID.TID 0000.0001) -----------------------------------------------------
(PID.TID 0000.0001)  DIAGNOSTICS_READPARMS: global parameter summary:
(PID.TID 0000.0001)  diag_dBugLevel = /* level of printed debug messages */
(PID.TID 0000.0001)                       0
(PID.TID 0000.0001)     ;
(PID.TID 0000.0001)  dumpAtLast = /* always write time-ave diags at the end */
(PID.TID 0000.0001)                   F
(PID.TID 0000.0001)     ;
(PID.TID 0000.0001)  diag_mnc =   /* write NetCDF output files */
(PID.TID 0000.0001)                   F
(PID.TID 0000.0001)     ;
(PID.TID 0000.0001)  useMissingValue = /* put MissingValue where mask = 0 */
(PID.TID 0000.0001)                   F
(PID.TID 0000.0001)     ;
(PID.TID 0000.0001)  diagCG_maxIters = /* max number of iters in diag_cg2d */
(PID.TID 0000.0001)                     100
(PID.TID 0000.0001)     ;
(PID.TID 0000.0001)  diagCG_resTarget = /* residual target for diag_cg2d */
(PID.TID 0000.0001)                 1.000000000000000E-05
(PID.TID 0000.0001)     ;
(PID.TID 0000.0001)  diagCG_pcOffDFac = /* preconditioner off-diagonal factor */
(PID.TID 0000.0001)                 9.611687812379854E-01
(PID.TID 0000.0001)     ;
(PID.TID 0000.0001) -----------------------------------------------------
(PID.TID 0000.0001)  DIAGNOSTICS_READPARMS: active diagnostics summary:
(PID.TID 0000.0001) -----------------------------------------------------
(PID.TID 0000.0001) Creating Output Stream: surfDiag
(PID.TID 0000.0001) Output Frequency:     432000.000000 ; Phase:           0.000000
(PID.TID 0000.0001)  Averaging Freq.:     432000.000000 , Phase:           0.000000 , Cycle:   1
(PID.TID 0000.0001)  missing value: -9.990000000000E+02
(PID.TID 0000.0001)  Levels:    will be set later
(PID.TID 0000.0001)  Fields:    ETAN     TRELAX   MXLDEPTH
(PID.TID 0000.0001) Creating Output Stream: dynDiag
(PID.TID 0000.0001) Output Frequency:     432000.000000 ; Phase:           0.000000
(PID.TID 0000.0001)  Averaging Freq.:     432000.000000 , Phase:           0.000000 , Cycle:   1
(PID.TID 0000.0001)  missing value: -9.990000000000E+02
(PID.TID 0000.0001)  Levels:    will be set later
(PID.TID 0000.0001)  Fields:    THETA    PHIHYD   UVEL     VVEL     WVEL     THETASQ  UVELSQ   VVELSQ   WVELSQ   PhiVEL
(PID.TID 0000.0001)  Fields:    PsiVEL   momKE
(PID.TID 0000.0001) -----------------------------------------------------
(PID.TID 0000.0001)  DIAGNOSTICS_READPARMS: statistics diags. summary:
(PID.TID 0000.0001) Creating Stats. Output Stream: dynStDiag
(PID.TID 0000.0001) Output Frequency:     432000.000000 ; Phase:           0.000000
(PID.TID 0000.0001)  Regions:   0
(PID.TID 0000.0001)  Fields:    THETA    TRELAX
(PID.TID 0000.0001) -----------------------------------------------------
(PID.TID 0000.0001) 
(PID.TID 0000.0001) SET_PARMS: done
(PID.TID 0000.0001) Enter INI_VERTICAL_GRID: setInterFDr=    T ; setCenterDr=    F
(PID.TID 0000.0001) %MON XC_max                       =   6.0500000000000E+01
(PID.TID 0000.0001) %MON XC_min                       =  -5.0000000000000E-01
(PID.TID 0000.0001) %MON XC_mean                      =   3.0000000000000E+01
(PID.TID 0000.0001) %MON XC_sd                        =   1.7895530168173E+01
(PID.TID 0000.0001) %MON XG_max                       =   6.0000000000000E+01
(PID.TID 0000.0001) %MON XG_min                       =  -1.0000000000000E+00
(PID.TID 0000.0001) %MON XG_mean                      =   2.9500000000000E+01
(PID.TID 0000.0001) %MON XG_sd                        =   1.7895530168173E+01
(PID.TID 0000.0001) %MON DXC_max                      =   1.0763620848898E+05
(PID.TID 0000.0001) %MON DXC_min                      =   2.7836616228646E+04
(PID.TID 0000.0001) %MON DXC_mean                     =   7.4835486957243E+04
(PID.TID 0000.0001) %MON DXC_sd                       =   2.4080389995677E+04
(PID.TID 0000.0001) %MON DXF_max                      =   1.0763620848898E+05
(PID.TID 0000.0001) %MON DXF_min                      =   2.7836616228646E+04
(PID.TID 0000.0001) %MON DXF_mean                     =   7.4835486957243E+04
(PID.TID 0000.0001) %MON DXF_sd                       =   2.4080389995677E+04
(PID.TID 0000.0001) %MON DXG_max                      =   1.0787502725165E+05
(PID.TID 0000.0001) %MON DXG_min                      =   2.8774847489886E+04
(PID.TID 0000.0001) %MON DXG_mean                     =   7.5485691984677E+04
(PID.TID 0000.0001) %MON DXG_sd                       =   2.3877575243700E+04
(PID.TID 0000.0001) %MON DXV_max                      =   1.0787502725165E+05
(PID.TID 0000.0001) %MON DXV_min                      =   2.8774847489886E+04
(PID.TID 0000.0001) %MON DXV_mean                     =   7.5485691984677E+04
(PID.TID 0000.0001) %MON DXV_sd                       =   2.3877575243700E+04
(PID.TID 0000.0001) %MON YC_max                       =   7.5500000000000E+01
(PID.TID 0000.0001) %MON YC_min                       =   1.4500000000000E+01
(PID.TID 0000.0001) %MON YC_mean                      =   4.5000000000000E+01
(PID.TID 0000.0001) %MON YC_sd                        =   1.7895530168173E+01
(PID.TID 0000.0001) %MON YG_max                       =   7.5000000000000E+01
(PID.TID 0000.0001) %MON YG_min                       =   1.4000000000000E+01
(PID.TID 0000.0001) %MON YG_mean                      =   4.4500000000000E+01
(PID.TID 0000.0001) %MON YG_sd                        =   1.7895530168173E+01
(PID.TID 0000.0001) %MON DYC_max                      =   1.1117747335204E+05
(PID.TID 0000.0001) %MON DYC_min                      =   1.1117747335204E+05
(PID.TID 0000.0001) %MON DYC_mean                     =   1.1117747335203E+05
(PID.TID 0000.0001) %MON DYC_sd                       =   6.1554601415992E-09
(PID.TID 0000.0001) %MON DYF_max                      =   1.1117747335204E+05
(PID.TID 0000.0001) %MON DYF_min                      =   1.1117747335204E+05
(PID.TID 0000.0001) %MON DYF_mean                     =   1.1117747335203E+05
(PID.TID 0000.0001) %MON DYF_sd                       =   6.1554601415992E-09
(PID.TID 0000.0001) %MON DYG_max                      =   1.1117747335204E+05
(PID.TID 0000.0001) %MON DYG_min                      =   1.1117747335204E+05
(PID.TID 0000.0001) %MON DYG_mean                     =   1.1117747335203E+05
(PID.TID 0000.0001) %MON DYG_sd                       =   6.1554601415992E-09
(PID.TID 0000.0001) %MON DYU_max                      =   1.1117747335204E+05
(PID.TID 0000.0001) %MON DYU_min                      =   1.1117747335204E+05
(PID.TID 0000.0001) %MON DYU_mean                     =   1.1117747335203E+05
(PID.TID 0000.0001) %MON DYU_sd                       =   6.1554601415992E-09
(PID.TID 0000.0001) %MON RA_max                       =   1.1966569815247E+10
(PID.TID 0000.0001) %MON RA_min                       =   3.0947653786454E+09
(PID.TID 0000.0001) %MON RA_mean                      =   8.3199147564140E+09
(PID.TID 0000.0001) %MON RA_sd                        =   2.6771629371464E+09
(PID.TID 0000.0001) %MON RAW_max                      =   1.1966569815247E+10
(PID.TID 0000.0001) %MON RAW_min                      =   3.0947653786454E+09
(PID.TID 0000.0001) %MON RAW_mean                     =   8.3199147564140E+09
(PID.TID 0000.0001) %MON RAW_sd                       =   2.6771629371464E+09
(PID.TID 0000.0001) %MON RAS_max                      =   1.1993120744872E+10
(PID.TID 0000.0001) %MON RAS_min                      =   3.1990742357492E+09
(PID.TID 0000.0001) %MON RAS_mean                     =   8.3922019910189E+09
(PID.TID 0000.0001) %MON RAS_sd                       =   2.6546147916555E+09
(PID.TID 0000.0001) %MON RAZ_max                      =   1.1993120744872E+10
(PID.TID 0000.0001) %MON RAZ_min                      =   3.1990742357492E+09
(PID.TID 0000.0001) %MON RAZ_mean                     =   8.3922019910189E+09
(PID.TID 0000.0001) %MON RAZ_sd                       =   2.6546147916555E+09
(PID.TID 0000.0001) %MON AngleCS_max                  =   1.0000000000000E+00
(PID.TID 0000.0001) %MON AngleCS_min                  =   1.0000000000000E+00
(PID.TID 0000.0001) %MON AngleCS_mean                 =   1.0000000000000E+00
(PID.TID 0000.0001) %MON AngleCS_sd                   =   0.0000000000000E+00
(PID.TID 0000.0001) %MON AngleSN_max                  =   0.0000000000000E+00
(PID.TID 0000.0001) %MON AngleSN_min                  =   0.0000000000000E+00
(PID.TID 0000.0001) %MON AngleSN_mean                 =   0.0000000000000E+00
(PID.TID 0000.0001) %MON AngleSN_sd                   =   0.0000000000000E+00
(PID.TID 0000.0001) GAD_INIT_FIXED: GAD_OlMinSize=  2  0  1
(PID.TID 0000.0001) 
(PID.TID 0000.0001) // ===================================
(PID.TID 0000.0001) // GAD parameters :
(PID.TID 0000.0001) // ===================================
(PID.TID 0000.0001) tempAdvScheme =   /* Temp. Horiz.Advection scheme selector */
(PID.TID 0000.0001)                      33
(PID.TID 0000.0001)     ;
(PID.TID 0000.0001) tempVertAdvScheme =   /* Temp. Vert. Advection scheme selector */
(PID.TID 0000.0001)                      33
(PID.TID 0000.0001)     ;
(PID.TID 0000.0001) tempMultiDimAdvec =   /* use Muti-Dim Advec method for Temp */
(PID.TID 0000.0001)                   T
(PID.TID 0000.0001)     ;
(PID.TID 0000.0001) tempSOM_Advection = /* use 2nd Order Moment Advection for Temp */
(PID.TID 0000.0001)                   F
(PID.TID 0000.0001)     ;
(PID.TID 0000.0001) AdamsBashforthGt = /* apply Adams-Bashforth extrapolation on Gt */
(PID.TID 0000.0001)                   F
(PID.TID 0000.0001)     ;
(PID.TID 0000.0001) AdamsBashforth_T = /* apply Adams-Bashforth extrapolation on Temp */
(PID.TID 0000.0001)                   F
(PID.TID 0000.0001)     ;
(PID.TID 0000.0001) saltAdvScheme =   /* Salt. Horiz.advection scheme selector */
(PID.TID 0000.0001)                      33
(PID.TID 0000.0001)     ;
(PID.TID 0000.0001) saltVertAdvScheme =   /* Salt. Vert. Advection scheme selector */
(PID.TID 0000.0001)                      33
(PID.TID 0000.0001)     ;
(PID.TID 0000.0001) saltMultiDimAdvec =   /* use Muti-Dim Advec method for Salt */
(PID.TID 0000.0001)                   T
(PID.TID 0000.0001)     ;
(PID.TID 0000.0001) saltSOM_Advection = /* use 2nd Order Moment Advection for Salt */
(PID.TID 0000.0001)                   F
(PID.TID 0000.0001)     ;
(PID.TID 0000.0001) AdamsBashforthGs = /* apply Adams-Bashforth extrapolation on Gs */
(PID.TID 0000.0001)                   F
(PID.TID 0000.0001)     ;
(PID.TID 0000.0001) AdamsBashforth_S = /* apply Adams-Bashforth extrapolation on Salt */
(PID.TID 0000.0001)                   F
(PID.TID 0000.0001)     ;
(PID.TID 0000.0001) // ===================================
(PID.TID 0000.0001) CTRL_INIT_FIXED: ivar=   2 = number of CTRL variables defined
(PID.TID 0000.0001) 
(PID.TID 0000.0001) ctrl-wet 1:    nvarlength =       164576
(PID.TID 0000.0001) ctrl-wet 2: surface wet C =         2892
(PID.TID 0000.0001) ctrl-wet 3: surface wet W =         2832
(PID.TID 0000.0001) ctrl-wet 4: surface wet S =         2832
(PID.TID 0000.0001) ctrl-wet 5: 3D wet points =        82288
(PID.TID 0000.0001) ctrl-wet 6: no recs for ivar =     1           1
(PID.TID 0000.0001) ctrl-wet 6: no recs for ivar =     2           1
(PID.TID 0000.0001) ctrl-wet 6: no recs for ivar =     3           0
(PID.TID 0000.0001) ctrl-wet 6: no recs for ivar =     4           0
(PID.TID 0000.0001) ctrl-wet 6: no recs for ivar =     5           0
(PID.TID 0000.0001) ctrl-wet 6: no recs for ivar =     6           0
(PID.TID 0000.0001) ctrl-wet 6: no recs for ivar =     7           0
(PID.TID 0000.0001) ctrl-wet -------------------------------------------------
(PID.TID 0000.0001) ctrl-wet 13: global nvarlength for Nr =   31      164576
(PID.TID 0000.0001) ctrl-wet -------------------------------------------------
(PID.TID 0000.0001) ctrl-wet 14: global nWet C/S/W k=    1        2892        2832        2832
(PID.TID 0000.0001) ctrl-wet 14: global nWet C/S/W k=    2        2892        2832        2832
(PID.TID 0000.0001) ctrl-wet 14: global nWet C/S/W k=    3        2892        2832        2832
(PID.TID 0000.0001) ctrl-wet 14: global nWet C/S/W k=    4        2892        2832        2832
(PID.TID 0000.0001) ctrl-wet 14: global nWet C/S/W k=    5        2892        2832        2832
(PID.TID 0000.0001) ctrl-wet 14: global nWet C/S/W k=    6        2892        2832        2832
(PID.TID 0000.0001) ctrl-wet 14: global nWet C/S/W k=    7        2892        2832        2832
(PID.TID 0000.0001) ctrl-wet 14: global nWet C/S/W k=    8        2676        2618        2618
(PID.TID 0000.0001) ctrl-wet 14: global nWet C/S/W k=    9        2660        2602        2602
(PID.TID 0000.0001) ctrl-wet 14: global nWet C/S/W k=   10        2644        2586        2586
(PID.TID 0000.0001) ctrl-wet 14: global nWet C/S/W k=   11        2632        2574        2574
(PID.TID 0000.0001) ctrl-wet 14: global nWet C/S/W k=   12        2632        2574        2574
(PID.TID 0000.0001) ctrl-wet 14: global nWet C/S/W k=   13        2624        2566        2566
(PID.TID 0000.0001) ctrl-wet 14: global nWet C/S/W k=   14        2608        2550        2550
(PID.TID 0000.0001) ctrl-wet 14: global nWet C/S/W k=   15        2608        2550        2550
(PID.TID 0000.0001) ctrl-wet 14: global nWet C/S/W k=   16        2600        2542        2542
(PID.TID 0000.0001) ctrl-wet 14: global nWet C/S/W k=   17        2600        2542        2542
(PID.TID 0000.0001) ctrl-wet 14: global nWet C/S/W k=   18        2600        2542        2542
(PID.TID 0000.0001) ctrl-wet 14: global nWet C/S/W k=   19        2584        2526        2526
(PID.TID 0000.0001) ctrl-wet 14: global nWet C/S/W k=   20        2584        2526        2526
(PID.TID 0000.0001) ctrl-wet 14: global nWet C/S/W k=   21        2584        2526        2526
(PID.TID 0000.0001) ctrl-wet 14: global nWet C/S/W k=   22        2584        2526        2526
(PID.TID 0000.0001) ctrl-wet 14: global nWet C/S/W k=   23        2576        2518        2518
(PID.TID 0000.0001) ctrl-wet 14: global nWet C/S/W k=   24        2576        2518        2518
(PID.TID 0000.0001) ctrl-wet 14: global nWet C/S/W k=   25        2568        2510        2510
(PID.TID 0000.0001) ctrl-wet 14: global nWet C/S/W k=   26        2536        2480        2480
(PID.TID 0000.0001) ctrl-wet 14: global nWet C/S/W k=   27        2528        2472        2472
(PID.TID 0000.0001) ctrl-wet 14: global nWet C/S/W k=   28        2528        2472        2472
(PID.TID 0000.0001) ctrl-wet 14: global nWet C/S/W k=   29        2512        2456        2456
(PID.TID 0000.0001) ctrl-wet 14: global nWet C/S/W k=   30        2504        2448        2448
(PID.TID 0000.0001) ctrl-wet 14: global nWet C/S/W k=   31        2496        2440        2440
(PID.TID 0000.0001) ctrl-wet -------------------------------------------------
(PID.TID 0000.0001) ctrl_init_wet: no. of control variables:            2
(PID.TID 0000.0001) ctrl_init_wet: control vector length:          164576
(PID.TID 0000.0001) 
(PID.TID 0000.0001) // =======================================================
(PID.TID 0000.0001) // control vector configuration  >>> START <<<
(PID.TID 0000.0001) // =======================================================
(PID.TID 0000.0001) 
(PID.TID 0000.0001)  Total number of ocean points per tile:
(PID.TID 0000.0001)  --------------------------------------
(PID.TID 0000.0001)  sNx*sNy*Nr =   119164
(PID.TID 0000.0001) 
(PID.TID 0000.0001)  Number of ocean points per tile:
(PID.TID 0000.0001)  --------------------------------
(PID.TID 0000.0001)  bi,bj,#(c/s/w): 001 001   82288   80488   80488
(PID.TID 0000.0001) 
(PID.TID 0000.0001)  -> 3d control, genarr3d no.  1 is in use
(PID.TID 0000.0001)       file       = xx_theta
(PID.TID 0000.0001)       ncvartype  = Arr3D
(PID.TID 0000.0001)       index      =     1  (use this for pkg/grdchk)
(PID.TID 0000.0001)       ncvarindex =     1
(PID.TID 0000.0001)       weight     = ones_64b.bin
(PID.TID 0000.0001) 
(PID.TID 0000.0001)  -> 3d control, genarr3d no.  2 is in use
(PID.TID 0000.0001)       file       = xx_salt
(PID.TID 0000.0001)       ncvartype  = Arr3D
(PID.TID 0000.0001)       index      =     2  (use this for pkg/grdchk)
(PID.TID 0000.0001)       ncvarindex =     2
(PID.TID 0000.0001)       weight     = ones_64b.bin
(PID.TID 0000.0001) 
(PID.TID 0000.0001) // =======================================================
(PID.TID 0000.0001) // control vector configuration  >>> END <<<
(PID.TID 0000.0001) // =======================================================
(PID.TID 0000.0001) 
(PID.TID 0000.0001) ------------------------------------------------------------
(PID.TID 0000.0001) DIAGNOSTICS_SET_LEVELS: done
(PID.TID 0000.0001)  Total Nb of available Diagnostics: ndiagt=   230
(PID.TID 0000.0001) SETDIAG: Allocate  1 x  1 Levels for Diagnostic #    23 ETAN
(PID.TID 0000.0001) SETDIAG: Allocate  1 x  1 Levels for Diagnostic #    89 TRELAX
(PID.TID 0000.0001) SETDIAG: Allocate  1 x  1 Levels for Diagnostic #    76 MXLDEPTH
(PID.TID 0000.0001) SETDIAG: Allocate 31 x  1 Levels for Diagnostic #    26 THETA
(PID.TID 0000.0001) SETDIAG: Allocate 31 x  1 Levels for Diagnostic #    71 PHIHYD
(PID.TID 0000.0001) SETDIAG: Allocate 31 x  1 Levels for Diagnostic #    30 UVEL
(PID.TID 0000.0001) SETDIAG: Allocate 31 x  1 Levels for Diagnostic #    31 VVEL
(PID.TID 0000.0001) SETDIAG: Allocate 31 x  1 Levels for Diagnostic #    32 WVEL
(PID.TID 0000.0001) SETDIAG: Allocate 31 x  1 Levels for Diagnostic #    33 THETASQ
(PID.TID 0000.0001) SETDIAG: Allocate 31 x  1 Levels for Diagnostic #    36 UVELSQ
(PID.TID 0000.0001) SETDIAG: Allocate 31 x  1 Levels for Diagnostic #    37 VVELSQ
(PID.TID 0000.0001) SETDIAG: Allocate 31 x  1 Levels for Diagnostic #    38 WVELSQ
(PID.TID 0000.0001) SETDIAG: Diag #    48 PhiVEL   processed from Diag #    45 UVELMASS
(PID.TID 0000.0001) SETDIAG: Allocate 31 x  1 Levels for Diagnostic #    45 UVELMASS
(PID.TID 0000.0001) SETDIAG: Allocate 31 x  1 Levels for Mate Diag. #    46 VVELMASS
(PID.TID 0000.0001) SETDIAG: Diag #    49 PsiVEL   processed from Diag #    48 PhiVEL
(PID.TID 0000.0001) - NOTE - SETDIAG:  Diagnostic  #    48 PhiVEL   is already set
(PID.TID 0000.0001) SETDIAG: Allocate 31 x  1 Levels for Diagnostic #   168 momKE
(PID.TID 0000.0001)   space allocated for all diagnostics:     375 levels
(PID.TID 0000.0001)   set mate pointer for diag #    30  UVEL     , Parms: UUR     MR , mate:    31
(PID.TID 0000.0001)   set mate pointer for diag #    31  VVEL     , Parms: VVR     MR , mate:    30
(PID.TID 0000.0001)   set mate pointer for diag #    36  UVELSQ   , Parms: UURP    MR , mate:    37
(PID.TID 0000.0001)   set mate pointer for diag #    37  VVELSQ   , Parms: VVRP    MR , mate:    36
(PID.TID 0000.0001)   set mate pointer for diag #    45  UVELMASS , Parms: UUr     MR , mate:    46
(PID.TID 0000.0001)   set mate pointer for diag #    46  VVELMASS , Parms: VVr     MR , mate:    45
(PID.TID 0000.0001) DIAGNOSTICS_SET_POINTERS: Set levels for Outp.Stream: surfDiag
(PID.TID 0000.0001)  Levels:       1.
(PID.TID 0000.0001) DIAGNOSTICS_SET_POINTERS: Set levels for Outp.Stream: dynDiag
(PID.TID 0000.0001)  Levels:       1.   2.   3.   4.   5.   6.   7.   8.   9.  10.  11.  12.  13.  14.  15.  16.  17.  18.  19.  20.
(PID.TID 0000.0001)  Levels:      21.  22.  23.  24.  25.  26.  27.  28.  29.  30.  31.
(PID.TID 0000.0001) DIAGNOSTICS_SET_POINTERS: done, use     375 levels (numDiags =     620 )
(PID.TID 0000.0001) ------------------------------------------------------------
(PID.TID 0000.0001) DIAGSTATS_SET_REGIONS: define no region
(PID.TID 0000.0001) ------------------------------------------------------------
(PID.TID 0000.0001) SETDIAG: Allocate 31 Levels for Stats-Diag #    26 THETA
(PID.TID 0000.0001) SETDIAG: Allocate  1 Levels for Stats-Diag #    89 TRELAX
(PID.TID 0000.0001)   space allocated for all stats-diags:      32 levels
(PID.TID 0000.0001) DIAGSTATS_SET_POINTERS: done, use      32 levels (diagSt_size=     310 )
(PID.TID 0000.0001) ------------------------------------------------------------
(PID.TID 0000.0001) %MON fCori_max                    =   1.4119704352640E-04
(PID.TID 0000.0001) %MON fCori_min                    =   3.6516038314991E-05
(PID.TID 0000.0001) %MON fCori_mean                   =   9.8169098090287E-05
(PID.TID 0000.0001) %MON fCori_sd                     =   3.1588625445689E-05
(PID.TID 0000.0001) %MON fCoriG_max                   =   1.4087300867102E-04
(PID.TID 0000.0001) %MON fCoriG_min                   =   3.5282486883545E-05
(PID.TID 0000.0001) %MON fCoriG_mean                  =   9.7308683992512E-05
(PID.TID 0000.0001) %MON fCoriG_sd                    =   3.1852455422807E-05
(PID.TID 0000.0001) %MON fCoriCos_max                 =   1.4119704352640E-04
(PID.TID 0000.0001) %MON fCoriCos_min                 =   3.6516038314991E-05
(PID.TID 0000.0001) %MON fCoriCos_mean                =   9.8169098090291E-05
(PID.TID 0000.0001) %MON fCoriCos_sd                  =   3.1588625445688E-05
(PID.TID 0000.0001) INI_CG2D: CG2D normalisation factor =  8.6024439359483882E-05
(PID.TID 0000.0001) 
(PID.TID 0000.0001) // =======================================================
(PID.TID 0000.0001) // Model configuration
(PID.TID 0000.0001) // =======================================================
(PID.TID 0000.0001) //
(PID.TID 0000.0001) // "Physical" paramters ( PARM01 in namelist )
(PID.TID 0000.0001) //
(PID.TID 0000.0001) buoyancyRelation = /* Type of relation to get Buoyancy */
(PID.TID 0000.0001)               'OCEANIC'
(PID.TID 0000.0001)     ;
(PID.TID 0000.0001) fluidIsAir   =  /* fluid major constituent is Air */
(PID.TID 0000.0001)                   F
(PID.TID 0000.0001)     ;
(PID.TID 0000.0001) fluidIsWater =  /* fluid major constituent is Water */
(PID.TID 0000.0001)                   T
(PID.TID 0000.0001)     ;
(PID.TID 0000.0001) usingPCoords =  /* use p (or p*) vertical coordinate */
(PID.TID 0000.0001)                   F
(PID.TID 0000.0001)     ;
(PID.TID 0000.0001) usingZCoords =  /* use z (or z*) vertical coordinate */
(PID.TID 0000.0001)                   T
(PID.TID 0000.0001)     ;
(PID.TID 0000.0001) tRef =   /* Reference temperature profile ( oC or K ) */
(PID.TID 0000.0001)     3 @  2.300000000000000E+01,             /* K =  1:  3 */
(PID.TID 0000.0001)                 2.200000000000000E+01,      /* K =  4 */
(PID.TID 0000.0001)                 2.100000000000000E+01,      /* K =  5 */
(PID.TID 0000.0001)                 2.000000000000000E+01,      /* K =  6 */
(PID.TID 0000.0001)                 1.900000000000000E+01,      /* K =  7 */
(PID.TID 0000.0001)                 1.700000000000000E+01,      /* K =  8 */
(PID.TID 0000.0001)                 1.600000000000000E+01,      /* K =  9 */
(PID.TID 0000.0001)                 1.500000000000000E+01,      /* K = 10 */
(PID.TID 0000.0001)                 1.400000000000000E+01,      /* K = 11 */
(PID.TID 0000.0001)                 1.200000000000000E+01,      /* K = 12 */
(PID.TID 0000.0001)                 1.100000000000000E+01,      /* K = 13 */
(PID.TID 0000.0001)                 1.000000000000000E+01,      /* K = 14 */
(PID.TID 0000.0001)                 9.000000000000000E+00,      /* K = 15 */
(PID.TID 0000.0001)                 8.000000000000000E+00,      /* K = 16 */
(PID.TID 0000.0001)                 7.000000000000000E+00,      /* K = 17 */
(PID.TID 0000.0001)     2 @  6.000000000000000E+00,             /* K = 18: 19 */
(PID.TID 0000.0001)     2 @  5.000000000000000E+00,             /* K = 20: 21 */
(PID.TID 0000.0001)     2 @  4.000000000000000E+00,             /* K = 22: 23 */
(PID.TID 0000.0001)     2 @  3.000000000000000E+00,             /* K = 24: 25 */
(PID.TID 0000.0001)     2 @  2.000000000000000E+00,             /* K = 26: 27 */
(PID.TID 0000.0001)     4 @  1.000000000000000E+00              /* K = 28: 31 */
(PID.TID 0000.0001)     ;
(PID.TID 0000.0001) sRef =   /* Reference salinity profile ( g/kg ) */
(PID.TID 0000.0001)    31 @  3.450000000000000E+01              /* K =  1: 31 */
(PID.TID 0000.0001)     ;
(PID.TID 0000.0001) rhoRef =   /* Density vertical profile from (Ref,sRef)( kg/m^3 ) */
(PID.TID 0000.0001)                 1.023577572005954E+03,      /* K =  1 */
(PID.TID 0000.0001)                 1.023623549263207E+03,      /* K =  2 */
(PID.TID 0000.0001)                 1.023675613276342E+03,      /* K =  3 */
(PID.TID 0000.0001)                 1.024018569869809E+03,      /* K =  4 */
(PID.TID 0000.0001)                 1.024361629697283E+03,      /* K =  5 */
(PID.TID 0000.0001)                 1.024705804444866E+03,      /* K =  6 */
(PID.TID 0000.0001)                 1.025052271508737E+03,      /* K =  7 */
(PID.TID 0000.0001)                 1.025645661964391E+03,      /* K =  8 */
(PID.TID 0000.0001)                 1.025992592411289E+03,      /* K =  9 */
(PID.TID 0000.0001)                 1.026346361931734E+03,      /* K = 10 */
(PID.TID 0000.0001)                 1.026709001157942E+03,      /* K = 11 */
(PID.TID 0000.0001)                 1.027282846338663E+03,      /* K = 12 */
(PID.TID 0000.0001)                 1.027661721921800E+03,      /* K = 13 */
(PID.TID 0000.0001)                 1.028057401528922E+03,      /* K = 14 */
(PID.TID 0000.0001)                 1.028473375249018E+03,      /* K = 15 */
(PID.TID 0000.0001)                 1.028913616650366E+03,      /* K = 16 */
(PID.TID 0000.0001)                 1.029382636686713E+03,      /* K = 17 */
(PID.TID 0000.0001)                 1.029885606645691E+03,      /* K = 18 */
(PID.TID 0000.0001)                 1.030290072892818E+03,      /* K = 19 */
(PID.TID 0000.0001)                 1.030888016683447E+03,      /* K = 20 */
(PID.TID 0000.0001)                 1.031407239662327E+03,      /* K = 21 */
(PID.TID 0000.0001)                 1.032129670505891E+03,      /* K = 22 */
(PID.TID 0000.0001)                 1.032795424975157E+03,      /* K = 23 */
(PID.TID 0000.0001)                 1.033679764328331E+03,      /* K = 24 */
(PID.TID 0000.0001)                 1.034532122852911E+03,      /* K = 25 */
(PID.TID 0000.0001)                 1.035625595542812E+03,      /* K = 26 */
(PID.TID 0000.0001)                 1.036714659799745E+03,      /* K = 27 */
(PID.TID 0000.0001)                 1.038076228708180E+03,      /* K = 28 */
(PID.TID 0000.0001)                 1.039464021739831E+03,      /* K = 29 */
(PID.TID 0000.0001)                 1.041023891510315E+03,      /* K = 30 */
(PID.TID 0000.0001)                 1.042775365441382E+03       /* K = 31 */
(PID.TID 0000.0001)     ;
(PID.TID 0000.0001) dBdrRef = /* Vertical grad. of reference buoyancy [(m/s/r)^2] */
(PID.TID 0000.0001)     3 @  0.000000000000000E+00,             /* K =  1:  3 */
(PID.TID 0000.0001)                 1.981426362570402E-04,      /* K =  4 */
(PID.TID 0000.0001)                 1.701092979003860E-04,      /* K =  5 */
(PID.TID 0000.0001)                 1.458715085243869E-04,      /* K =  6 */
(PID.TID 0000.0001)                 1.249125719785483E-04,      /* K =  7 */
(PID.TID 0000.0001)                 2.099649801856568E-04,      /* K =  8 */
(PID.TID 0000.0001)                 8.792303423357168E-05,      /* K =  9 */
(PID.TID 0000.0001)                 7.484001221613001E-05,      /* K = 10 */
(PID.TID 0000.0001)                 6.358666111189054E-05,      /* K = 11 */
(PID.TID 0000.0001)                 1.054006897248987E-04,      /* K = 12 */
(PID.TID 0000.0001)                 4.344210601996791E-05,      /* K = 13 */
(PID.TID 0000.0001)                 3.656879805711143E-05,      /* K = 14 */
(PID.TID 0000.0001)                 3.069973543024333E-05,      /* K = 15 */
(PID.TID 0000.0001)                 2.570018494684971E-05,      /* K = 16 */
(PID.TID 0000.0001)                 2.145254771255852E-05,      /* K = 17 */
(PID.TID 0000.0001)                 1.785089392823324E-05,      /* K = 18 */
(PID.TID 0000.0001)                 0.000000000000000E+00,      /* K = 19 */
(PID.TID 0000.0001)                 1.329610664296088E-05,      /* K = 20 */
(PID.TID 0000.0001)                 0.000000000000000E+00,      /* K = 21 */
(PID.TID 0000.0001)                 9.975032051112675E-06,      /* K = 22 */
(PID.TID 0000.0001)                 0.000000000000000E+00,      /* K = 23 */
(PID.TID 0000.0001)                 7.572079405734685E-06,      /* K = 24 */
(PID.TID 0000.0001)                 0.000000000000000E+00,      /* K = 25 */
(PID.TID 0000.0001)                 5.849104430055921E-06,      /* K = 26 */
(PID.TID 0000.0001)                 0.000000000000000E+00,      /* K = 27 */
(PID.TID 0000.0001)                 4.627878774813460E-06,      /* K = 28 */
(PID.TID 0000.0001)     3 @  0.000000000000000E+00              /* K = 29: 31 */
(PID.TID 0000.0001)     ;
(PID.TID 0000.0001) useStrainTensionVisc= /* Use StrainTension Form of Viscous Operator */
(PID.TID 0000.0001)                   F
(PID.TID 0000.0001)     ;
(PID.TID 0000.0001) useVariableVisc = /* Use variable horizontal viscosity */
(PID.TID 0000.0001)                   T
(PID.TID 0000.0001)     ;
(PID.TID 0000.0001) useHarmonicVisc = /* Use harmonic horizontal viscosity */
(PID.TID 0000.0001)                   F
(PID.TID 0000.0001)     ;
(PID.TID 0000.0001) useBiharmonicVisc= /* Use biharmonic horiz.  viscosity */
(PID.TID 0000.0001)                   T
(PID.TID 0000.0001)     ;
(PID.TID 0000.0001) useSmag3D = /* Use isotropic 3-D Smagorinsky viscosity */
(PID.TID 0000.0001)                   F
(PID.TID 0000.0001)     ;
(PID.TID 0000.0001) viscAh  =   /* Lateral harmonic viscosity ( m^2/s ) */
(PID.TID 0000.0001)                 0.000000000000000E+00
(PID.TID 0000.0001)     ;
(PID.TID 0000.0001) viscAhMax = /* Maximum lateral harmonic viscosity ( m^2/s ) */
(PID.TID 0000.0001)                 1.000000000000000E+21
(PID.TID 0000.0001)     ;
(PID.TID 0000.0001) viscAhGrid = /* Grid dependent lateral harmonic viscosity ( non-dim. ) */
(PID.TID 0000.0001)                 0.000000000000000E+00
(PID.TID 0000.0001)     ;
(PID.TID 0000.0001) useFullLeith = /* Use Full Form of Leith Viscosity on/off flag*/
(PID.TID 0000.0001)                   F
(PID.TID 0000.0001)     ;
(PID.TID 0000.0001) useAreaViscLength = /* Use area for visc length instead of geom. mean*/
(PID.TID 0000.0001)                   T
(PID.TID 0000.0001)     ;
(PID.TID 0000.0001) viscC2leith = /* Leith harmonic visc. factor (on grad(vort),non-dim.) */
(PID.TID 0000.0001)                 0.000000000000000E+00
(PID.TID 0000.0001)     ;
(PID.TID 0000.0001) viscC2leithD = /* Leith harmonic viscosity factor (on grad(div),non-dim.)*/
(PID.TID 0000.0001)                 0.000000000000000E+00
(PID.TID 0000.0001)     ;
(PID.TID 0000.0001) viscC2LeithQG = /* QG Leith harmonic viscosity factor (non-dim.)*/
(PID.TID 0000.0001)                 0.000000000000000E+00
(PID.TID 0000.0001)     ;
(PID.TID 0000.0001) viscC2smag = /* Smagorinsky harmonic viscosity factor (non-dim.) */
(PID.TID 0000.0001)                 0.000000000000000E+00
(PID.TID 0000.0001)     ;
(PID.TID 0000.0001) viscA4  =   /* Lateral biharmonic viscosity ( m^4/s ) */
(PID.TID 0000.0001)                 0.000000000000000E+00
(PID.TID 0000.0001)     ;
(PID.TID 0000.0001) viscA4Max = /* Maximum biharmonic viscosity ( m^2/s ) */
(PID.TID 0000.0001)                 1.000000000000000E+21
(PID.TID 0000.0001)     ;
(PID.TID 0000.0001) viscA4Grid = /* Grid dependent biharmonic viscosity ( non-dim. ) */
(PID.TID 0000.0001)                 0.000000000000000E+00
(PID.TID 0000.0001)     ;
(PID.TID 0000.0001) viscC4leith = /* Leith biharm viscosity factor (on grad(vort), non-dim.)*/
(PID.TID 0000.0001)                 2.150000000000000E+00
(PID.TID 0000.0001)     ;
(PID.TID 0000.0001) viscC4leithD = /* Leith biharm viscosity factor (on grad(div), non-dim.) */
(PID.TID 0000.0001)                 2.150000000000000E+00
(PID.TID 0000.0001)     ;
(PID.TID 0000.0001) viscC4Smag = /* Smagorinsky biharm viscosity factor (non-dim) */
(PID.TID 0000.0001)                 0.000000000000000E+00
(PID.TID 0000.0001)     ;
(PID.TID 0000.0001) no_slip_sides =  /* Viscous BCs: No-slip sides */
(PID.TID 0000.0001)                   T
(PID.TID 0000.0001)     ;
(PID.TID 0000.0001) sideDragFactor = /* side-drag scaling factor (non-dim) */
(PID.TID 0000.0001)                 2.000000000000000E+00
(PID.TID 0000.0001)     ;
(PID.TID 0000.0001) viscArNr = /* vertical profile of vertical viscosity ( m^2/s )*/
(PID.TID 0000.0001)    31 @  0.000000000000000E+00              /* K =  1: 31 */
(PID.TID 0000.0001)     ;
(PID.TID 0000.0001) no_slip_bottom =  /* Viscous BCs: No-slip bottom */
(PID.TID 0000.0001)                   T
(PID.TID 0000.0001)     ;
(PID.TID 0000.0001) bottomVisc_pCell = /* Partial-cell in bottom Visc. BC */
(PID.TID 0000.0001)                   F
(PID.TID 0000.0001)     ;
(PID.TID 0000.0001) bottomDragLinear = /* linear bottom-drag coefficient ( m/s ) */
(PID.TID 0000.0001)                 0.000000000000000E+00
(PID.TID 0000.0001)     ;
(PID.TID 0000.0001) bottomDragQuadratic = /* quadratic bottom-drag coefficient (-) */
(PID.TID 0000.0001)                 2.100000000000000E-03
(PID.TID 0000.0001)     ;
(PID.TID 0000.0001) selectBotDragQuadr = /* select quadratic bottom drag options */
(PID.TID 0000.0001)                       0
(PID.TID 0000.0001)     ;
(PID.TID 0000.0001) diffKhT =   /* Laplacian diffusion of heat laterally ( m^2/s ) */
(PID.TID 0000.0001)                 0.000000000000000E+00
(PID.TID 0000.0001)     ;
(PID.TID 0000.0001) diffK4T =   /* Biharmonic diffusion of heat laterally ( m^4/s ) */
(PID.TID 0000.0001)                 0.000000000000000E+00
(PID.TID 0000.0001)     ;
(PID.TID 0000.0001) diffKhS =   /* Laplacian diffusion of salt laterally ( m^2/s ) */
(PID.TID 0000.0001)                 0.000000000000000E+00
(PID.TID 0000.0001)     ;
(PID.TID 0000.0001) diffK4S =   /* Biharmonic diffusion of salt laterally ( m^4/s ) */
(PID.TID 0000.0001)                 0.000000000000000E+00
(PID.TID 0000.0001)     ;
(PID.TID 0000.0001) diffKrNrT = /* vertical profile of vertical diffusion of Temp ( m^2/s )*/
(PID.TID 0000.0001)    31 @  0.000000000000000E+00              /* K =  1: 31 */
(PID.TID 0000.0001)     ;
(PID.TID 0000.0001) diffKrNrS = /* vertical profile of vertical diffusion of Salt ( m^2/s )*/
(PID.TID 0000.0001)    31 @  0.000000000000000E+00              /* K =  1: 31 */
(PID.TID 0000.0001)     ;
(PID.TID 0000.0001) diffKrBL79surf = /* Surface diffusion for Bryan and Lewis 79 ( m^2/s ) */
(PID.TID 0000.0001)                 0.000000000000000E+00
(PID.TID 0000.0001)     ;
(PID.TID 0000.0001) diffKrBL79deep = /* Deep diffusion for Bryan and Lewis 1979 ( m^2/s ) */
(PID.TID 0000.0001)                 0.000000000000000E+00
(PID.TID 0000.0001)     ;
(PID.TID 0000.0001) diffKrBL79scl = /* Depth scale for Bryan and Lewis 1979 ( m ) */
(PID.TID 0000.0001)                 2.000000000000000E+02
(PID.TID 0000.0001)     ;
(PID.TID 0000.0001) diffKrBL79Ho = /* Turning depth for Bryan and Lewis 1979 ( m ) */
(PID.TID 0000.0001)                -2.000000000000000E+03
(PID.TID 0000.0001)     ;
(PID.TID 0000.0001) ivdc_kappa = /* Implicit Vertical Diffusivity for Convection ( m^2/s) */
(PID.TID 0000.0001)                 0.000000000000000E+00
(PID.TID 0000.0001)     ;
(PID.TID 0000.0001) hMixCriteria=  /* Criteria for mixed-layer diagnostic */
(PID.TID 0000.0001)                -8.000000000000000E-01
(PID.TID 0000.0001)     ;
(PID.TID 0000.0001) dRhoSmall =  /* Parameter for mixed-layer diagnostic */
(PID.TID 0000.0001)                 1.000000000000000E-06
(PID.TID 0000.0001)     ;
(PID.TID 0000.0001) hMixSmooth=  /* Smoothing parameter for mixed-layer diagnostic */
(PID.TID 0000.0001)                 0.000000000000000E+00
(PID.TID 0000.0001)     ;
(PID.TID 0000.0001) eosType =  /* Type of Equation of State */
(PID.TID 0000.0001)               'JMD95Z'
(PID.TID 0000.0001)     ;
(PID.TID 0000.0001) eosRefP0 = /* Reference atmospheric pressure for EOS ( Pa ) */
(PID.TID 0000.0001)                 1.013250000000000E+05
(PID.TID 0000.0001)     ;
(PID.TID 0000.0001) selectP_inEOS_Zc = /* select pressure to use in EOS (0,1,2,3) */
(PID.TID 0000.0001)                       0
(PID.TID 0000.0001)     0= -g*rhoConst*z ; 1= pRef (from tRef,sRef); 2= Hyd P ; 3= Hyd+NH P
(PID.TID 0000.0001)     ;
(PID.TID 0000.0001) surf_pRef = /* Surface reference pressure ( Pa ) */
(PID.TID 0000.0001)                 1.013250000000000E+05
(PID.TID 0000.0001)     ;
(PID.TID 0000.0001) HeatCapacity_Cp =  /* Specific heat capacity ( J/kg/K ) */
(PID.TID 0000.0001)                 3.994000000000000E+03
(PID.TID 0000.0001)     ;
(PID.TID 0000.0001) celsius2K = /* 0 degree Celsius converted to Kelvin ( K ) */
(PID.TID 0000.0001)                 2.731500000000000E+02
(PID.TID 0000.0001)     ;
(PID.TID 0000.0001) rhoConst  = /* Reference density (Boussinesq)  ( kg/m^3 ) */
(PID.TID 0000.0001)                 1.027500000000000E+03
(PID.TID 0000.0001)     ;
(PID.TID 0000.0001) rhoFacC = /* normalized Reference density @ cell-Center (-) */
(PID.TID 0000.0001)    31 @  1.000000000000000E+00              /* K =  1: 31 */
(PID.TID 0000.0001)     ;
(PID.TID 0000.0001) rhoFacF = /* normalized Reference density @ W-Interface (-) */
(PID.TID 0000.0001)    32 @  1.000000000000000E+00              /* K =  1: 32 */
(PID.TID 0000.0001)     ;
(PID.TID 0000.0001) rhoConstFresh = /* Fresh-water reference density ( kg/m^3 ) */
(PID.TID 0000.0001)                 9.998000000000000E+02
(PID.TID 0000.0001)     ;
(PID.TID 0000.0001) gravity =   /* Gravitational acceleration ( m/s^2 ) */
(PID.TID 0000.0001)                 9.810000000000000E+00
(PID.TID 0000.0001)     ;
(PID.TID 0000.0001) gBaro =   /* Barotropic gravity ( m/s^2 ) */
(PID.TID 0000.0001)                 9.810000000000000E+00
(PID.TID 0000.0001)     ;
(PID.TID 0000.0001) gravFacC = /* gravity factor (vs surf.) @ cell-Center (-) */
(PID.TID 0000.0001)    31 @  1.000000000000000E+00              /* K =  1: 31 */
(PID.TID 0000.0001)     ;
(PID.TID 0000.0001) gravFacF = /* gravity factor (vs surf.) @ W-Interface (-) */
(PID.TID 0000.0001)    32 @  1.000000000000000E+00              /* K =  1: 32 */
(PID.TID 0000.0001)     ;
(PID.TID 0000.0001) rotationPeriod =   /* Rotation Period ( s ) */
(PID.TID 0000.0001)                 8.616400000000000E+04
(PID.TID 0000.0001)     ;
(PID.TID 0000.0001) omega =   /* Angular velocity ( rad/s ) */
(PID.TID 0000.0001)                 7.292123516990375E-05
(PID.TID 0000.0001)     ;
(PID.TID 0000.0001) f0 =   /* Reference coriolis parameter ( 1/s ) */
(PID.TID 0000.0001)                 1.000000000000000E-04
(PID.TID 0000.0001)     ;
(PID.TID 0000.0001) beta =   /* Beta ( 1/(m.s) ) */
(PID.TID 0000.0001)                 9.999999999999999E-12
(PID.TID 0000.0001)     ;
(PID.TID 0000.0001) fPrime =   /* Second coriolis parameter ( 1/s ) */
(PID.TID 0000.0001)                 0.000000000000000E+00
(PID.TID 0000.0001)     ;
(PID.TID 0000.0001) rigidLid =   /* Rigid lid on/off flag */
(PID.TID 0000.0001)                   F
(PID.TID 0000.0001)     ;
(PID.TID 0000.0001) implicitFreeSurface =   /* Implicit free surface on/off flag */
(PID.TID 0000.0001)                   T
(PID.TID 0000.0001)     ;
(PID.TID 0000.0001) freeSurfFac =   /* Implicit free surface factor */
(PID.TID 0000.0001)                 1.000000000000000E+00
(PID.TID 0000.0001)     ;
(PID.TID 0000.0001) implicSurfPress =  /* Surface Pressure implicit factor (0-1) */
(PID.TID 0000.0001)                 1.000000000000000E+00
(PID.TID 0000.0001)     ;
(PID.TID 0000.0001) implicDiv2DFlow =  /* Barot. Flow Div. implicit factor (0-1) */
(PID.TID 0000.0001)                 1.000000000000000E+00
(PID.TID 0000.0001)     ;
(PID.TID 0000.0001) uniformLin_PhiSurf = /* use uniform Bo_surf on/off flag */
(PID.TID 0000.0001)                   T
(PID.TID 0000.0001)     ;
(PID.TID 0000.0001) uniformFreeSurfLev = /* free-surface level-index is uniform */
(PID.TID 0000.0001)                   T
(PID.TID 0000.0001)     ;
(PID.TID 0000.0001) sIceLoadFac =  /* scale factor for sIceLoad (0-1) */
(PID.TID 0000.0001)                 1.000000000000000E+00
(PID.TID 0000.0001)     ;
(PID.TID 0000.0001) hFacMin =   /* minimum partial cell factor (hFac) */
(PID.TID 0000.0001)                 3.000000000000000E-01
(PID.TID 0000.0001)     ;
(PID.TID 0000.0001) hFacMinDr = /* minimum partial cell thickness ( m) */
(PID.TID 0000.0001)                 5.000000000000000E+01
(PID.TID 0000.0001)     ;
(PID.TID 0000.0001) exactConserv =  /* Exact Volume Conservation on/off flag */
(PID.TID 0000.0001)                   T
(PID.TID 0000.0001)     ;
(PID.TID 0000.0001) linFSConserveTr = /* Tracer correction for Lin Free Surface on/off flag */
(PID.TID 0000.0001)                   F
(PID.TID 0000.0001)     ;
(PID.TID 0000.0001) nonlinFreeSurf = /* Non-linear Free Surf. options (-1,0,1,2,3)*/
(PID.TID 0000.0001)                       0
(PID.TID 0000.0001)      -1,0= Off ; 1,2,3= On, 2=+rescale gU,gV, 3=+update cg2d solv.
(PID.TID 0000.0001)     ;
(PID.TID 0000.0001) hFacInf =   /* lower threshold for hFac (nonlinFreeSurf only)*/
(PID.TID 0000.0001)                 1.000000000000000E-01
(PID.TID 0000.0001)     ;
(PID.TID 0000.0001) hFacSup =   /* upper threshold for hFac (nonlinFreeSurf only)*/
(PID.TID 0000.0001)                 5.000000000000000E+00
(PID.TID 0000.0001)     ;
(PID.TID 0000.0001) select_rStar = /* r* Vertical coord. options (=0 r coord.; >0 uses r*)*/
(PID.TID 0000.0001)                       0
(PID.TID 0000.0001)     ;
(PID.TID 0000.0001) useRealFreshWaterFlux = /* Real Fresh Water Flux on/off flag*/
(PID.TID 0000.0001)                   F
(PID.TID 0000.0001)     ;
(PID.TID 0000.0001) temp_EvPrRn = /* Temp. of Evap/Prec/R (UNSET=use local T)(oC)*/
(PID.TID 0000.0001)                 1.234567000000000E+05
(PID.TID 0000.0001)     ;
(PID.TID 0000.0001) salt_EvPrRn = /* Salin. of Evap/Prec/R (UNSET=use local S)(g/kg)*/
(PID.TID 0000.0001)                 0.000000000000000E+00
(PID.TID 0000.0001)     ;
(PID.TID 0000.0001) selectAddFluid = /* option for mass source/sink of fluid (=0: off) */
(PID.TID 0000.0001)                       0
(PID.TID 0000.0001)     ;
(PID.TID 0000.0001) temp_addMass = /* Temp. of addMass array (UNSET=use local T)(oC)*/
(PID.TID 0000.0001)                 1.234567000000000E+05
(PID.TID 0000.0001)     ;
(PID.TID 0000.0001) salt_addMass = /* Salin. of addMass array (UNSET=use local S)(g/kg)*/
(PID.TID 0000.0001)                 0.000000000000000E+00
(PID.TID 0000.0001)     ;
(PID.TID 0000.0001) convertFW2Salt = /* convert F.W. Flux to Salt Flux (-1=use local S)(g/kg)*/
(PID.TID 0000.0001)                 3.500000000000000E+01
(PID.TID 0000.0001)     ;
(PID.TID 0000.0001) use3Dsolver = /* use 3-D pressure solver on/off flag */
(PID.TID 0000.0001)                   F
(PID.TID 0000.0001)     ;
(PID.TID 0000.0001) nonHydrostatic =  /* Non-Hydrostatic on/off flag */
(PID.TID 0000.0001)                   F
(PID.TID 0000.0001)     ;
(PID.TID 0000.0001) nh_Am2 = /* Non-Hydrostatic terms scaling factor */
(PID.TID 0000.0001)                 1.000000000000000E+00
(PID.TID 0000.0001)     ;
(PID.TID 0000.0001) implicitNHPress = /* Non-Hyd Pressure implicit factor (0-1)*/
(PID.TID 0000.0001)                 1.000000000000000E+00
(PID.TID 0000.0001)     ;
(PID.TID 0000.0001) selectNHfreeSurf = /* Non-Hyd (free-)Surface option */
(PID.TID 0000.0001)                       0
(PID.TID 0000.0001)     ;
(PID.TID 0000.0001) quasiHydrostatic = /* Quasi-Hydrostatic on/off flag */
(PID.TID 0000.0001)                   F
(PID.TID 0000.0001)     ;
(PID.TID 0000.0001) calc_wVelocity = /* vertical velocity calculation on/off flag */
(PID.TID 0000.0001)                   T
(PID.TID 0000.0001)     ;
(PID.TID 0000.0001) momStepping =  /* Momentum equation on/off flag */
(PID.TID 0000.0001)                   T
(PID.TID 0000.0001)     ;
(PID.TID 0000.0001) vectorInvariantMomentum= /* Vector-Invariant Momentum on/off */
(PID.TID 0000.0001)                   T
(PID.TID 0000.0001)     ;
(PID.TID 0000.0001) momAdvection =  /* Momentum advection on/off flag */
(PID.TID 0000.0001)                   T
(PID.TID 0000.0001)     ;
(PID.TID 0000.0001) momViscosity =  /* Momentum viscosity on/off flag */
(PID.TID 0000.0001)                   T
(PID.TID 0000.0001)     ;
(PID.TID 0000.0001) momImplVertAdv= /* Momentum implicit vert. advection on/off*/
(PID.TID 0000.0001)                   F
(PID.TID 0000.0001)     ;
(PID.TID 0000.0001) implicitViscosity = /* Implicit viscosity on/off flag */
(PID.TID 0000.0001)                   T
(PID.TID 0000.0001)     ;
(PID.TID 0000.0001) selectImplicitDrag= /* Implicit bot Drag options (0,1,2)*/
(PID.TID 0000.0001)                       0
(PID.TID 0000.0001)     0= Expl. ; 1= Impl. on provis. Vel ; 2= Fully Impl (with surf.P)
(PID.TID 0000.0001)     ;
(PID.TID 0000.0001) selectMetricTerms= /* Metric-Terms on/off flag (=0/1) */
(PID.TID 0000.0001)                       1
(PID.TID 0000.0001)     ;
(PID.TID 0000.0001) useNHMTerms = /* Non-Hydrostatic Metric-Terms on/off */
(PID.TID 0000.0001)                   F
(PID.TID 0000.0001)     ;
(PID.TID 0000.0001) selectCoriMap = /* Coriolis Map options (0,1,2,3)*/
(PID.TID 0000.0001)                       2
(PID.TID 0000.0001)     0= f-Plane ; 1= Beta-Plane ; 2= Spherical ; 3= read from file
(PID.TID 0000.0001)     ;
(PID.TID 0000.0001) select3dCoriScheme= /* 3-D Coriolis on/off flag (=0/1) */
(PID.TID 0000.0001)                       0
(PID.TID 0000.0001)     ;
(PID.TID 0000.0001) useCoriolis =  /* Coriolis on/off flag */
(PID.TID 0000.0001)                   T
(PID.TID 0000.0001)     ;
(PID.TID 0000.0001) useCDscheme =  /* CD scheme on/off flag */
(PID.TID 0000.0001)                   F
(PID.TID 0000.0001)     ;
(PID.TID 0000.0001) selectCoriScheme= /* Scheme selector for Coriolis-Term */
(PID.TID 0000.0001)                       0
(PID.TID 0000.0001)    = 0 : original discretization (simple averaging, no hFac)
(PID.TID 0000.0001)    = 1 : Wet-point averaging (Jamar & Ozer 1986)
(PID.TID 0000.0001)    = 2 : hFac weighted average (Angular Mom. conserving)
(PID.TID 0000.0001)    = 3 : energy conserving scheme using hFac weighted average
(PID.TID 0000.0001)     ;
(PID.TID 0000.0001) useAbsVorticity= /* V.I Works with f+zeta in Coriolis */
(PID.TID 0000.0001)                   F
(PID.TID 0000.0001)     ;
(PID.TID 0000.0001) selectVortScheme= /* V.I Scheme selector for Vorticity-Term */
(PID.TID 0000.0001)                       1
(PID.TID 0000.0001)    = 0 : enstrophy (Shallow-Water Eq.) conserving scheme by Sadourny, JAS 75
(PID.TID 0000.0001)    = 1 : same as 0 with modified hFac
(PID.TID 0000.0001)    = 2 : energy conserving scheme (used by Sadourny in JAS 75 paper)
(PID.TID 0000.0001)    = 3 : energy (general) and enstrophy (2D, nonDiv.) conserving scheme
(PID.TID 0000.0001)          from Sadourny (Burridge & Haseler, ECMWF Rep.4, 1977)
(PID.TID 0000.0001)     ;
(PID.TID 0000.0001) useJamartMomAdv= /* V.I Non-linear terms Jamart flag */
(PID.TID 0000.0001)                   F
(PID.TID 0000.0001)     ;
(PID.TID 0000.0001) upwindVorticity= /* V.I Upwind bias vorticity flag */
(PID.TID 0000.0001)                   F
(PID.TID 0000.0001)     ;
(PID.TID 0000.0001) highOrderVorticity= /* V.I High order vort. advect. flag */
(PID.TID 0000.0001)                   F
(PID.TID 0000.0001)     ;
(PID.TID 0000.0001) upwindShear= /* V.I Upwind vertical Shear advection flag */
(PID.TID 0000.0001)                   F
(PID.TID 0000.0001)     ;
(PID.TID 0000.0001) selectKEscheme= /* V.I Kinetic Energy scheme selector */
(PID.TID 0000.0001)                       0
(PID.TID 0000.0001)     ;
(PID.TID 0000.0001) momForcing =  /* Momentum forcing on/off flag */
(PID.TID 0000.0001)                   T
(PID.TID 0000.0001)     ;
(PID.TID 0000.0001) momTidalForcing = /* Momentum Tidal forcing on/off flag */
(PID.TID 0000.0001)                   T
(PID.TID 0000.0001)     ;
(PID.TID 0000.0001) momPressureForcing =  /* Momentum pressure term on/off flag */
(PID.TID 0000.0001)                   T
(PID.TID 0000.0001)     ;
(PID.TID 0000.0001) implicitIntGravWave= /* Implicit Internal Gravity Wave flag */
(PID.TID 0000.0001)                   F
(PID.TID 0000.0001)     ;
(PID.TID 0000.0001) staggerTimeStep =    /* Stagger time stepping on/off flag */
(PID.TID 0000.0001)                   T
(PID.TID 0000.0001)     ;
(PID.TID 0000.0001) doResetHFactors = /* reset thickness factors @ each time-step */
(PID.TID 0000.0001)                   F
(PID.TID 0000.0001)     ;
(PID.TID 0000.0001) multiDimAdvection =  /* enable/disable Multi-Dim Advection */
(PID.TID 0000.0001)                   T
(PID.TID 0000.0001)     ;
(PID.TID 0000.0001) useMultiDimAdvec =   /* Multi-Dim Advection is/is-not used */
(PID.TID 0000.0001)                   T
(PID.TID 0000.0001)     ;
(PID.TID 0000.0001) implicitDiffusion = /* Implicit Diffusion on/off flag */
(PID.TID 0000.0001)                   T
(PID.TID 0000.0001)     ;
(PID.TID 0000.0001) tempStepping =  /* Temperature equation on/off flag */
(PID.TID 0000.0001)                   T
(PID.TID 0000.0001)     ;
(PID.TID 0000.0001) tempAdvection = /* Temperature advection on/off flag */
(PID.TID 0000.0001)                   T
(PID.TID 0000.0001)     ;
(PID.TID 0000.0001) tempImplVertAdv = /* Temp. implicit vert. advection on/off */
(PID.TID 0000.0001)                   F
(PID.TID 0000.0001)     ;
(PID.TID 0000.0001) tempForcing  =  /* Temperature forcing on/off flag */
(PID.TID 0000.0001)                   T
(PID.TID 0000.0001)     ;
(PID.TID 0000.0001) doThetaClimRelax = /* apply SST relaxation on/off flag */
(PID.TID 0000.0001)                   T
(PID.TID 0000.0001)     ;
(PID.TID 0000.0001) tempIsActiveTr = /* Temp. is a dynamically Active Tracer */
(PID.TID 0000.0001)                   T
(PID.TID 0000.0001)     ;
(PID.TID 0000.0001) saltStepping =  /* Salinity equation on/off flag */
(PID.TID 0000.0001)                   T
(PID.TID 0000.0001)     ;
(PID.TID 0000.0001) saltAdvection = /* Salinity advection on/off flag */
(PID.TID 0000.0001)                   T
(PID.TID 0000.0001)     ;
(PID.TID 0000.0001) saltImplVertAdv = /* Sali. implicit vert. advection on/off */
(PID.TID 0000.0001)                   F
(PID.TID 0000.0001)     ;
(PID.TID 0000.0001) saltForcing  =  /* Salinity forcing on/off flag */
(PID.TID 0000.0001)                   F
(PID.TID 0000.0001)     ;
(PID.TID 0000.0001) doSaltClimRelax = /* apply SSS relaxation on/off flag */
(PID.TID 0000.0001)                   F
(PID.TID 0000.0001)     ;
(PID.TID 0000.0001) saltIsActiveTr = /* Salt  is a dynamically Active Tracer */
(PID.TID 0000.0001)                   T
(PID.TID 0000.0001)     ;
(PID.TID 0000.0001)  readBinaryPrec = /* Precision used for reading binary files */
(PID.TID 0000.0001)                      32
(PID.TID 0000.0001)     ;
(PID.TID 0000.0001) writeBinaryPrec = /* Precision used for writing binary files */
(PID.TID 0000.0001)                      32
(PID.TID 0000.0001)     ;
(PID.TID 0000.0001)  rwSuffixType =   /* select format of mds file suffix */
(PID.TID 0000.0001)                       0
(PID.TID 0000.0001)    = 0 : myIter (I10.10) ;   = 1 : 100*myTime (100th sec) ;
(PID.TID 0000.0001)    = 2 : myTime (seconds);   = 3 : myTime/360 (10th of hr);
(PID.TID 0000.0001)    = 4 : myTime/3600 (hours)
(PID.TID 0000.0001)     ;
(PID.TID 0000.0001)  globalFiles = /* write "global" (=not per tile) files */
(PID.TID 0000.0001)                   F
(PID.TID 0000.0001)     ;
(PID.TID 0000.0001)  useSingleCpuIO = /* only master MPI process does I/O */
(PID.TID 0000.0001)                   T
(PID.TID 0000.0001)     ;
(PID.TID 0000.0001)  useSingleCpuInput = /* only master process reads input */
(PID.TID 0000.0001)                   T
(PID.TID 0000.0001)     ;
(PID.TID 0000.0001) /* debLev[*]  : level of debug & auxiliary message printing */
(PID.TID 0000.0001) debLevZero =  0 ; /* level of disabled aux. msg printing */
(PID.TID 0000.0001)    debLevA =  1 ; /* level of minimum  aux. msg printing */
(PID.TID 0000.0001)    debLevB =  2 ; /* level of low aux. print (report read-file opening)*/
(PID.TID 0000.0001)    debLevC =  3 ; /* level of moderate debug prt (most pkgs debug msg) */
(PID.TID 0000.0001)    debLevD =  4 ; /* level of enhanced debug prt (add DEBUG_STATS prt) */
(PID.TID 0000.0001)    debLevE =  5 ; /* level of extensive debug printing */
(PID.TID 0000.0001) debugLevel =  /* select debug printing level */
(PID.TID 0000.0001)                       0
(PID.TID 0000.0001)     ;
(PID.TID 0000.0001)  plotLevel =  /* select PLOT_FIELD printing level */
(PID.TID 0000.0001)                       0
(PID.TID 0000.0001)     ;
(PID.TID 0000.0001) //
(PID.TID 0000.0001) // Elliptic solver(s) paramters ( PARM02 in namelist )
(PID.TID 0000.0001) //
(PID.TID 0000.0001) cg2dMaxIters =   /* Upper limit on 2d con. grad iterations  */
(PID.TID 0000.0001)                     100
(PID.TID 0000.0001)     ;
[...]
 cg2d: Sum(rhs),rhsMax =   2.52173282255796E-13  4.29293272864372E-01
 cg2d: Sum(rhs),rhsMax =   3.01147995429574E-14  4.29062466485482E-01
 cg2d: Sum(rhs),rhsMax =   4.44991266057571E-13  4.28831331711884E-01
 cg2d: Sum(rhs),rhsMax =   1.51142987014907E-13  4.28599939574749E-01
 cg2d: Sum(rhs),rhsMax =  -1.31172850359462E-13  4.28368393210233E-01
 cg2d: Sum(rhs),rhsMax =  -7.36910532594948E-15  4.28136799196322E-01
 cg2d: Sum(rhs),rhsMax =   3.71369601737115E-13  4.27905319299928E-01
 cg2d: Sum(rhs),rhsMax =  -6.71129818385907E-14  4.27674097610692E-01
 cg2d: Sum(rhs),rhsMax =  -2.90323320939478E-14  4.27443330898385E-01
 cg2d: Sum(rhs),rhsMax =  -9.48546796664118E-14  4.27213176585409E-01
 cg2d: Sum(rhs),rhsMax =  -2.03212446869827E-13  4.26983826954307E-01
 cg2d: Sum(rhs),rhsMax =  -7.13012981989891E-13  4.26755442894550E-01
 cg2d: Sum(rhs),rhsMax =  -2.93903790193895E-13  4.26528204762997E-01
 cg2d: Sum(rhs),rhsMax =  -5.33406652181156E-13  4.26302394384098E-01
 cg2d: Sum(rhs),rhsMax =  -8.88178419700125E-15  4.26078177188299E-01
 cg2d: Sum(rhs),rhsMax =   9.72139035937403E-14  4.25849821125929E-01
 cg2d: Sum(rhs),rhsMax =  -6.19504447740837E-14  4.25622760523209E-01
 cg2d: Sum(rhs),rhsMax =   3.32650573753313E-14  4.25396934111611E-01
 cg2d: Sum(rhs),rhsMax =  -3.21978554929103E-13  4.25172931191026E-01
 cg2d: Sum(rhs),rhsMax =   1.89709359332824E-14  4.24950772310109E-01
 cg2d: Sum(rhs),rhsMax =  -2.09443573595536E-13  4.24730399670455E-01
 cg2d: Sum(rhs),rhsMax =   5.29548627170584E-13  4.24511722681411E-01
 cg2d: Sum(rhs),rhsMax =   4.31030211522909E-13  4.24295484581157E-01
 cg2d: Sum(rhs),rhsMax =  -2.21600515715181E-13  4.24080674705181E-01
 cg2d: Sum(rhs),rhsMax =  -1.55236934418213E-13  4.23867100751376E-01
 cg2d: Sum(rhs),rhsMax =   2.50771625687207E-14  4.23654582175773E-01
 cg2d: Sum(rhs),rhsMax =   5.28049826087340E-14  4.23442945411964E-01
 cg2d: Sum(rhs),rhsMax =  -5.16545139994662E-13  4.23231835875781E-01
 cg2d: Sum(rhs),rhsMax =  -6.25333118620119E-14  4.23021054706083E-01
 cg2d: Sum(rhs),rhsMax =  -1.39430134105112E-13  4.22810373982933E-01
 cg2d: Sum(rhs),rhsMax =  -3.57908147563535E-14  4.22599576704898E-01
 cg2d: Sum(rhs),rhsMax =  -3.75061093293994E-13  4.22388418373991E-01
 cg2d: Sum(rhs),rhsMax =  -1.84532944480509E-13  4.22176737876859E-01
 cg2d: Sum(rhs),rhsMax =  -7.13235026594816E-13  4.21964322336272E-01
 cg2d: Sum(rhs),rhsMax =   2.63802868438745E-13  4.21751052010136E-01
 cg2d: Sum(rhs),rhsMax =   5.91332538490974E-14  4.21536816667257E-01
 cg2d: Sum(rhs),rhsMax =  -2.51840215348409E-13  4.21323192096523E-01
 cg2d: Sum(rhs),rhsMax =   6.38378239159465E-15  4.21108492371588E-01
 cg2d: Sum(rhs),rhsMax =   7.18869408444789E-15  4.20892694366456E-01
 cg2d: Sum(rhs),rhsMax =  -1.99937288947183E-13  4.20675822005794E-01
 cg2d: Sum(rhs),rhsMax =   3.10793057956005E-13  4.20457953206262E-01
 cg2d: Sum(rhs),rhsMax =  -3.32581184814273E-13  4.20239195328580E-01
 cg2d: Sum(rhs),rhsMax =  -5.58442181386454E-13  4.20019694336229E-01
 cg2d: Sum(rhs),rhsMax =   5.61911628338407E-14  4.19799625467732E-01
 cg2d: Sum(rhs),rhsMax =   2.81344392227822E-13  4.19579200677916E-01
 cg2d: Sum(rhs),rhsMax =   1.14158682507082E-13  4.19358643005616E-01
 cg2d: Sum(rhs),rhsMax =   2.21780926956683E-13  4.19138193735021E-01
 cg2d: Sum(rhs),rhsMax =   1.05859765398009E-13  4.18922754187038E-01
 cg2d: Sum(rhs),rhsMax =  -3.41879302645509E-13  4.18707924779862E-01
 cg2d: Sum(rhs),rhsMax =  -6.73211486557079E-14  4.18493781047667E-01
 cg2d: Sum(rhs),rhsMax =  -5.51406142967892E-13  4.18280549933807E-01
 cg2d: Sum(rhs),rhsMax =   4.34888236533482E-13  4.18081801217909E-01
 cg2d: Sum(rhs),rhsMax =   4.76368944291039E-13  4.17965512860876E-01
 cg2d: Sum(rhs),rhsMax =  -2.69798072771721E-13  4.17849202737111E-01
 cg2d: Sum(rhs),rhsMax =   1.88238313825195E-13  4.17743402410501E-01
 cg2d: Sum(rhs),rhsMax =   7.42184091961917E-14  4.17645759047002E-01
 cg2d: Sum(rhs),rhsMax =   3.97834543086617E-13  4.17548704394090E-01
 cg2d: Sum(rhs),rhsMax =   2.22336038468995E-13  4.17452117526232E-01
 cg2d: Sum(rhs),rhsMax =   2.04544714499377E-13  4.17356114812301E-01
 cg2d: Sum(rhs),rhsMax =  -2.20837237385751E-13  4.17260717113395E-01
 cg2d: Sum(rhs),rhsMax =   1.59233737306863E-13  4.17165939969272E-01
 cg2d: Sum(rhs),rhsMax =   3.70536934468646E-15  4.17071781484390E-01
 cg2d: Sum(rhs),rhsMax =   1.94191884794748E-13  4.16978240768737E-01
 cg2d: Sum(rhs),rhsMax =  -1.15726872529365E-13  4.16885306125628E-01
 cg2d: Sum(rhs),rhsMax =   2.79998246810464E-13  4.16793161479308E-01
 cg2d: Sum(rhs),rhsMax =  -3.27252114296073E-13  4.16701095063762E-01
 cg2d: Sum(rhs),rhsMax =   1.10453313162395E-13  4.16610111382729E-01
 cg2d: Sum(rhs),rhsMax =   2.43610687178375E-13  4.16519193644865E-01
 cg2d: Sum(rhs),rhsMax =  -8.40022496007009E-14  4.16428781658672E-01
 cg2d: Sum(rhs),rhsMax =  -7.67441665772139E-14  4.16339108776631E-01
 cg2d: Sum(rhs),rhsMax =  -2.22044604925031E-13  4.16249447752967E-01
 cg2d: Sum(rhs),rhsMax =  -6.09234884763055E-15  4.16160255514921E-01
 cg2d: Sum(rhs),rhsMax =  -5.96939164765331E-13  4.16071333697669E-01
 cg2d: Sum(rhs),rhsMax =   1.15810139256212E-13  4.15982648126854E-01
 cg2d: Sum(rhs),rhsMax =   3.54230533794464E-13  4.15894158224461E-01
 cg2d: Sum(rhs),rhsMax =   3.49428819212960E-13  4.15805856640126E-01
 cg2d: Sum(rhs),rhsMax =   1.11327613794288E-13  4.15717705095435E-01
 cg2d: Sum(rhs),rhsMax =  -6.26304563766666E-14  4.15629673621381E-01
 cg2d: Sum(rhs),rhsMax =  -1.50462975412324E-13  4.15541748357533E-01
 cg2d: Sum(rhs),rhsMax =   5.46784839627890E-14  4.15453900884748E-01
 cg2d: Sum(rhs),rhsMax =   3.46403461470857E-13  4.15366129353283E-01
 cg2d: Sum(rhs),rhsMax =   3.73437392120479E-13  4.15278425075302E-01
 cg2d: Sum(rhs),rhsMax =  -4.11476408501699E-13  4.15190741149534E-01
 cg2d: Sum(rhs),rhsMax =   4.06188971346921E-13  4.15103131652624E-01
 cg2d: Sum(rhs),rhsMax =  -2.86368151414251E-13  4.15015603142366E-01
 cg2d: Sum(rhs),rhsMax =  -2.03531635989407E-13  4.14928155083108E-01
 cg2d: Sum(rhs),rhsMax =   4.22564760960142E-13  4.14840814403409E-01
 cg2d: Sum(rhs),rhsMax =  -7.07905956076615E-14  4.14753599538382E-01
 cg2d: Sum(rhs),rhsMax =  -5.83935677589409E-13  4.14666027084320E-01
 cg2d: Sum(rhs),rhsMax =   1.23373533611471E-14  4.14578633363972E-01
 cg2d: Sum(rhs),rhsMax =  -9.84073933452123E-14  4.14491447313762E-01
 cg2d: Sum(rhs),rhsMax =  -6.36449226654179E-13  4.14404483122024E-01
 cg2d: Sum(rhs),rhsMax =  -1.46757606067638E-13  4.14317761214814E-01
 cg2d: Sum(rhs),rhsMax =  -8.26699819711507E-14  4.14231307173029E-01
 cg2d: Sum(rhs),rhsMax =  -4.20344314910892E-13  4.14145136831888E-01
 cg2d: Sum(rhs),rhsMax =   8.95256091482111E-14  4.14059261636819E-01
 cg2d: Sum(rhs),rhsMax =  -7.15261183614757E-14  4.13973690354367E-01
 cg2d: Sum(rhs),rhsMax =  -1.25330301692372E-13  4.13888430271176E-01
 cg2d: Sum(rhs),rhsMax =  -9.13574771388426E-14  4.13803479614466E-01
 cg2d: Sum(rhs),rhsMax =  -6.22321638665824E-13  4.13717373790215E-01
 cg2d: Sum(rhs),rhsMax =  -2.78929657149263E-13  4.13631538300037E-01
 cg2d: Sum(rhs),rhsMax =  -3.79890563451113E-13  4.13546014235215E-01
 cg2d: Sum(rhs),rhsMax =   1.85851334322251E-13  4.13460766780837E-01
 cg2d: Sum(rhs),rhsMax =  -1.09898201650083E-13  4.13375778884449E-01
 cg2d: Sum(rhs),rhsMax =  -4.34680069716364E-13  4.13291052058000E-01
 cg2d: Sum(rhs),rhsMax =  -1.83492110394923E-13  4.13206549562244E-01
 cg2d: Sum(rhs),rhsMax =   1.32491240201205E-13  4.13122268200113E-01
 cg2d: Sum(rhs),rhsMax =   5.59066681837805E-13  4.13038181634738E-01
 cg2d: Sum(rhs),rhsMax =   1.13450915328883E-13  4.12954261659532E-01
 cg2d: Sum(rhs),rhsMax =  -1.50629508866018E-13  4.12870497549395E-01
 cg2d: Sum(rhs),rhsMax =  -1.51115231439292E-13  4.12786877227227E-01
 cg2d: Sum(rhs),rhsMax =  -2.67383337693161E-13  4.12703380447105E-01
 cg2d: Sum(rhs),rhsMax =   1.63924429585904E-13  4.12620003023921E-01
 cg2d: Sum(rhs),rhsMax =   3.64847041467442E-13  4.12536726713222E-01
 cg2d: Sum(rhs),rhsMax =   1.71668235182665E-14  4.12453557156634E-01
 cg2d: Sum(rhs),rhsMax =  -1.67088565206086E-14  4.12370490448390E-01
 cg2d: Sum(rhs),rhsMax =  -2.86978774077795E-13  4.12287531985108E-01
 cg2d: Sum(rhs),rhsMax =  -6.40057451484211E-13  4.12204688886018E-01
 cg2d: Sum(rhs),rhsMax =   3.51288442779207E-13  4.12121977300553E-01
 cg2d: Sum(rhs),rhsMax =  -3.56131790724135E-13  4.12039409236503E-01
 cg2d: Sum(rhs),rhsMax =  -1.55556123537792E-13  4.11957004992163E-01
 cg2d: Sum(rhs),rhsMax =  -4.56953919147907E-13  4.11874775866910E-01
 cg2d: Sum(rhs),rhsMax =  -3.03909675203329E-13  4.11792662790716E-01
 cg2d: Sum(rhs),rhsMax =  -4.17416101683443E-13  4.11710697934643E-01
 cg2d: Sum(rhs),rhsMax =  -2.77847189700253E-13  4.11628910615531E-01
 cg2d: Sum(rhs),rhsMax =  -6.06834027472303E-13  4.11547404070628E-01
 cg2d: Sum(rhs),rhsMax =   3.21992432716911E-13  4.11466159418661E-01
 cg2d: Sum(rhs),rhsMax =  -5.92095816820404E-13  4.11385242717242E-01
 cg2d: Sum(rhs),rhsMax =   1.61218260963381E-13  4.11304680846954E-01
 cg2d: Sum(rhs),rhsMax =  -2.57016630200724E-13  4.11224522628643E-01
 cg2d: Sum(rhs),rhsMax =   4.05744882137071E-13  4.11144783884061E-01
 cg2d: Sum(rhs),rhsMax =   1.48464573967999E-13  4.11065492478426E-01
 cg2d: Sum(rhs),rhsMax =  -2.60208521396521E-13  4.10986670930437E-01
 cg2d: Sum(rhs),rhsMax =  -3.79224429636338E-13  4.10908324851730E-01
 cg2d: Sum(rhs),rhsMax =  -2.83176260218454E-13  4.10830459747221E-01
 cg2d: Sum(rhs),rhsMax =   2.92724178230230E-13  4.10753068244487E-01
 cg2d: Sum(rhs),rhsMax =  -3.32095462241000E-13  4.10676139813081E-01
 cg2d: Sum(rhs),rhsMax =  -7.72715225139109E-14  4.10599612719963E-01
 cg2d: Sum(rhs),rhsMax =   2.42500464153750E-13  4.10523443396484E-01
 cg2d: Sum(rhs),rhsMax =  -4.55524507003702E-13  4.10447452056700E-01
 cg2d: Sum(rhs),rhsMax =  -3.93921006924813E-13  4.10371604926700E-01
 cg2d: Sum(rhs),rhsMax =   8.72774075233451E-14  4.10295866305508E-01
 cg2d: Sum(rhs),rhsMax =  -7.28625493273682E-13  4.10220202425221E-01
 cg2d: Sum(rhs),rhsMax =  -5.71487301925799E-14  4.10144585675231E-01
 cg2d: Sum(rhs),rhsMax =   2.61984878235921E-13  4.10068975898315E-01
 cg2d: Sum(rhs),rhsMax =   7.27556903612481E-13  4.09993274186429E-01
 cg2d: Sum(rhs),rhsMax =  -3.71230823859037E-14  4.09917552801790E-01
 cg2d: Sum(rhs),rhsMax =   1.32047150991355E-13  4.09841060416391E-01
 cg2d: Sum(rhs),rhsMax =  -6.72656375044767E-14  4.09764480159233E-01
 cg2d: Sum(rhs),rhsMax =  -1.99618099827603E-13  4.09687467784763E-01
 cg2d: Sum(rhs),rhsMax =  -5.90916204856740E-14  4.09609969422497E-01
 cg2d: Sum(rhs),rhsMax =   3.90146248641088E-13  4.09531993303992E-01
 cg2d: Sum(rhs),rhsMax =   1.80411241501588E-16  4.09453544407357E-01
 cg2d: Sum(rhs),rhsMax =  -5.77315972805081E-13  4.09374630349201E-01
 cg2d: Sum(rhs),rhsMax =   5.60898549828437E-13  4.09295213860660E-01
 cg2d: Sum(rhs),rhsMax =  -2.60444443789254E-13  4.09215376792736E-01
 cg2d: Sum(rhs),rhsMax =   3.66734420609305E-13  4.09135157528484E-01
 cg2d: Sum(rhs),rhsMax =   9.32864896441288E-14  4.09221056737962E-01
 cg2d: Sum(rhs),rhsMax =   6.43693431889858E-13  4.09472859345327E-01
 cg2d: Sum(rhs),rhsMax =  -1.98299709985861E-13  4.09724204043456E-01
 cg2d: Sum(rhs),rhsMax =   8.10601585854442E-14  4.09975042473910E-01
 cg2d: Sum(rhs),rhsMax =  -3.20132809150664E-13  4.10225368136781E-01
 cg2d: Sum(rhs),rhsMax =   5.83005865806285E-14  4.10475189104029E-01
 cg2d: Sum(rhs),rhsMax =  -3.75866004986847E-13  4.10724546692080E-01
 cg2d: Sum(rhs),rhsMax =  -6.55614451616771E-13  4.10973504262536E-01
 cg2d: Sum(rhs),rhsMax =   1.61107238660918E-13  4.11222170807113E-01
 cg2d: Sum(rhs),rhsMax =   3.79002385031413E-14  4.11470648192262E-01
 cg2d: Sum(rhs),rhsMax =   1.27758914558740E-13  4.11719058754791E-01
 cg2d: Sum(rhs),rhsMax =  -4.84848272641614E-13  4.11967525922657E-01
 cg2d: Sum(rhs),rhsMax =  -4.26741975090295E-13  4.12216111985145E-01
 cg2d: Sum(rhs),rhsMax =  -7.80653319765179E-13  4.12465005453931E-01
 cg2d: Sum(rhs),rhsMax =  -4.43325931520633E-13  4.12714350532975E-01
 cg2d: Sum(rhs),rhsMax =   7.09987624247788E-13  4.12964210109293E-01
 cg2d: Sum(rhs),rhsMax =   1.42941214420489E-14  4.13214555837567E-01
 cg2d: Sum(rhs),rhsMax =   3.88578058618805E-14  4.13465577356233E-01
 cg2d: Sum(rhs),rhsMax =  -2.91294766086025E-14  4.13717445993456E-01
 cg2d: Sum(rhs),rhsMax =   3.44085870906952E-13  4.13970303729976E-01
 cg2d: Sum(rhs),rhsMax =   9.89486270697171E-14  4.14224262823306E-01
 cg2d: Sum(rhs),rhsMax =  -1.66477942542542E-13  4.14479401168237E-01
 cg2d: Sum(rhs),rhsMax =   2.43888242934531E-13  4.14735765582095E-01
 cg2d: Sum(rhs),rhsMax =  -2.38795094809063E-13  4.14993623816333E-01
 cg2d: Sum(rhs),rhsMax =  -2.18755569214579E-13  4.15252652362049E-01
 cg2d: Sum(rhs),rhsMax =   3.28292948381659E-13  4.15512767540405E-01
 cg2d: Sum(rhs),rhsMax =  -3.14234749332343E-13  4.15773875807012E-01
 cg2d: Sum(rhs),rhsMax =   1.11063935825939E-13  4.16035797190629E-01
 cg2d: Sum(rhs),rhsMax =   4.24910107099663E-13  4.16298371974394E-01
 cg2d: Sum(rhs),rhsMax =  -8.86374307285109E-14  4.16561403593913E-01
 cg2d: Sum(rhs),rhsMax =  -2.48939757696576E-13  4.16824675695241E-01
 cg2d: Sum(rhs),rhsMax =   3.61405350091104E-13  4.17088003898379E-01
 cg2d: Sum(rhs),rhsMax =   1.27495236590391E-13  4.17351154192894E-01
 cg2d: Sum(rhs),rhsMax =   3.07934233667595E-13  4.17613922952595E-01
 cg2d: Sum(rhs),rhsMax =  -6.93473056756488E-13  4.17875569156676E-01
 cg2d: Sum(rhs),rhsMax =  -1.09343090137770E-13  4.18137733996911E-01
 cg2d: Sum(rhs),rhsMax =   1.74721348500384E-13  4.18397920746150E-01
 cg2d: Sum(rhs),rhsMax =  -5.06150676926609E-13  4.18656816949902E-01
 cg2d: Sum(rhs),rhsMax =  -3.29500315920939E-13  4.18915765661303E-01
 cg2d: Sum(rhs),rhsMax =  -1.83783543938887E-13  4.19171963035802E-01
 cg2d: Sum(rhs),rhsMax =   5.92442761515599E-13  4.19428254622675E-01
 cg2d: Sum(rhs),rhsMax =  -5.10230746542106E-13  4.19681801225595E-01
 cg2d: Sum(rhs),rhsMax =  -7.43918815437894E-13  4.19934878065642E-01
 cg2d: Sum(rhs),rhsMax =   3.39783756686529E-13  4.20186246593953E-01
 cg2d: Sum(rhs),rhsMax =   1.73194791841524E-13  4.20436374942228E-01
 cg2d: Sum(rhs),rhsMax =  -1.74485426107651E-13  4.20685365629968E-01
 cg2d: Sum(rhs),rhsMax =   4.69263516933438E-13  4.20933385429632E-01
 cg2d: Sum(rhs),rhsMax =  -1.74860126378462E-15  4.21180631361617E-01
 cg2d: Sum(rhs),rhsMax =  -1.26745836048769E-13  4.21427312483514E-01
 cg2d: Sum(rhs),rhsMax =  -1.47867829092263E-13  4.21673649930586E-01
 cg2d: Sum(rhs),rhsMax =   6.93334278878410E-14  4.21919901245538E-01
 cg2d: Sum(rhs),rhsMax =   2.30468422124375E-13  4.22166290456803E-01
 cg2d: Sum(rhs),rhsMax =  -6.60568821864160E-13  4.22413042021363E-01
 cg2d: Sum(rhs),rhsMax =   1.46688217128599E-14  4.22660379079369E-01
 cg2d: Sum(rhs),rhsMax =  -3.32844862782622E-13  4.22908502214219E-01
 cg2d: Sum(rhs),rhsMax =   1.14103171355850E-13  4.23157610377398E-01
 cg2d: Sum(rhs),rhsMax =   2.04447569984723E-13  4.23407820270877E-01
 cg2d: Sum(rhs),rhsMax =  -1.47715173426377E-13  4.23659272565460E-01
 cg2d: Sum(rhs),rhsMax =  -8.61630211623776E-13  4.23912031615633E-01
 cg2d: Sum(rhs),rhsMax =  -5.77038417048925E-14  4.24166131899395E-01
 cg2d: Sum(rhs),rhsMax =   4.53331816530067E-13  4.24421530823609E-01
 cg2d: Sum(rhs),rhsMax =   5.73999181519014E-13  4.24678138715021E-01
 cg2d: Sum(rhs),rhsMax =   1.98049909805320E-13  4.24935886688688E-01
 cg2d: Sum(rhs),rhsMax =   1.07941433569181E-13  4.25194659805882E-01
 cg2d: Sum(rhs),rhsMax =   6.65870136806745E-13  4.25454317222970E-01
 cg2d: Sum(rhs),rhsMax =  -1.12965192755610E-13  4.25714694776268E-01
 cg2d: Sum(rhs),rhsMax =  -2.92321722383804E-13  4.25975613173286E-01
 cg2d: Sum(rhs),rhsMax =   6.77097267143267E-14  4.26236860724903E-01
 cg2d: Sum(rhs),rhsMax =  -5.44564393578639E-14  4.26498213582323E-01
 cg2d: Sum(rhs),rhsMax =  -1.47826195728840E-13  4.26759335833625E-01
 cg2d: Sum(rhs),rhsMax =  -1.23304144672431E-13  4.27019976335758E-01
 cg2d: Sum(rhs),rhsMax =   1.33504318711175E-13  4.27279892159118E-01
 cg2d: Sum(rhs),rhsMax =  -9.27452559196240E-14  4.27538846436624E-01
 cg2d: Sum(rhs),rhsMax =   2.97817326355698E-14  4.27796642480469E-01
 cg2d: Sum(rhs),rhsMax =  -3.71078168193151E-13  4.28053120111607E-01
 cg2d: Sum(rhs),rhsMax =  -1.18821619210507E-13  4.28308134025018E-01
 cg2d: Sum(rhs),rhsMax =  -3.29417049194092E-13  4.28561593050234E-01
 cg2d: Sum(rhs),rhsMax =   4.27019530846451E-13  4.28813399467787E-01
 cg2d: Sum(rhs),rhsMax =  -2.09415818019920E-13  4.29063511601310E-01
 cg2d: Sum(rhs),rhsMax =   2.99718583285369E-13  4.29311953286149E-01
 cg2d: Sum(rhs),rhsMax =   4.77395900588817E-15  4.29558768120398E-01
 cg2d: Sum(rhs),rhsMax =   7.96807064773475E-13  4.29804042863614E-01
 cg2d: Sum(rhs),rhsMax =  -1.54459778300975E-14  4.30047921842746E-01
 cg2d: Sum(rhs),rhsMax =  -1.65437108456956E-13  4.30290524797923E-01
 cg2d: Sum(rhs),rhsMax =   3.01661473578463E-13  4.30532048233062E-01
 cg2d: Sum(rhs),rhsMax =   7.55950857467269E-13  4.30772698763686E-01
 cg2d: Sum(rhs),rhsMax =  -1.16101572800176E-13  4.31012724356956E-01
 cg2d: Sum(rhs),rhsMax =   3.04964387076723E-13  4.31252380039299E-01
 cg2d: Sum(rhs),rhsMax =  -3.61599639120413E-13  4.31491923376084E-01
 cg2d: Sum(rhs),rhsMax =   1.99562588676372E-13  4.31731569439212E-01
 cg2d: Sum(rhs),rhsMax =   3.15386605720391E-13  4.31971569531377E-01
 cg2d: Sum(rhs),rhsMax =  -5.10078090876220E-13  4.32212148532765E-01
 cg2d: Sum(rhs),rhsMax =  -5.10202990966491E-13  4.32453489777329E-01
 cg2d: Sum(rhs),rhsMax =  -2.17867390794879E-13  4.32695773970815E-01
 cg2d: Sum(rhs),rhsMax =   1.11591291762636E-13  4.32939969983680E-01
 cg2d: Sum(rhs),rhsMax =   1.91666127413725E-13  4.33185762259589E-01
 cg2d: Sum(rhs),rhsMax =   7.03048730343880E-14  4.33432608947343E-01
 cg2d: Sum(rhs),rhsMax =  -2.61513033450456E-13  4.33680463719297E-01
 cg2d: Sum(rhs),rhsMax =  -5.58789126081649E-13  4.33929268670757E-01
 cg2d: Sum(rhs),rhsMax =   7.95058463509690E-14  4.34178930089600E-01
 cg2d: Sum(rhs),rhsMax =  -7.72631958412262E-13  4.34429308231373E-01
 cg2d: Sum(rhs),rhsMax =   6.10900219299992E-14  4.34680241455775E-01
 cg2d: Sum(rhs),rhsMax =  -2.11969330976558E-13  4.34931395344234E-01
 cg2d: Sum(rhs),rhsMax =  -2.62609378687273E-13  4.35182698938435E-01
 cg2d: Sum(rhs),rhsMax =  -3.19758108879853E-13  4.35433931151709E-01
 cg2d: Sum(rhs),rhsMax =  -2.04461447772530E-13  4.35684855410608E-01
 cg2d: Sum(rhs),rhsMax =  -3.60683705125098E-14  4.35935247872119E-01
 cg2d: Sum(rhs),rhsMax =   8.99419427824455E-14  4.36184821575600E-01
 cg2d: Sum(rhs),rhsMax =  -1.55431223447522E-15  4.36427031162886E-01
 cg2d: Sum(rhs),rhsMax =  -1.76220149583628E-13  4.36668022042781E-01
 cg2d: Sum(rhs),rhsMax =  -1.62564406380739E-13  4.36907684334229E-01
 cg2d: Sum(rhs),rhsMax =  -1.38306033292679E-13  4.37145872817877E-01
 cg2d: Sum(rhs),rhsMax =  -2.62040389387153E-13  4.37382520493302E-01
 cg2d: Sum(rhs),rhsMax =  -3.73798214603482E-13  4.37617539939536E-01
 cg2d: Sum(rhs),rhsMax =  -2.11095030344666E-13  4.37850896967374E-01
 cg2d: Sum(rhs),rhsMax =   2.84314238818695E-13  4.38082577739938E-01
 cg2d: Sum(rhs),rhsMax =   1.87627691161651E-14  4.38312607921759E-01
 cg2d: Sum(rhs),rhsMax =  -2.04919414770188E-13  4.38541053813923E-01
 cg2d: Sum(rhs),rhsMax =   1.98521754590786E-13  4.38767991367421E-01
 cg2d: Sum(rhs),rhsMax =   4.92189622391948E-13  4.38993564846011E-01
 cg2d: Sum(rhs),rhsMax =  -2.13287720818300E-13  4.39217901002465E-01
 cg2d: Sum(rhs),rhsMax =  -2.49605891511351E-13  4.39438105122298E-01
 cg2d: Sum(rhs),rhsMax =  -7.25391968714462E-14  4.39657369719307E-01
 cg2d: Sum(rhs),rhsMax =   2.81052958683858E-13  4.39876012521000E-01
 cg2d: Sum(rhs),rhsMax =   3.27474158900998E-13  4.40094249711711E-01
 cg2d: Sum(rhs),rhsMax =   1.56888391167342E-13  4.40312341481006E-01
 cg2d: Sum(rhs),rhsMax =  -2.17700857341185E-13  4.40530546001117E-01
 cg2d: Sum(rhs),rhsMax =   1.49116829994966E-13  4.40749094184672E-01
