(PID.TID 0000.0001) ** WARNING ** CTRL_CHECK: ALLOW_GENTIM2D_CONTROL is unsafe without pkg/cal (currently: useCAL=F)
(PID.TID 0000.0001) ** WARNING ** CTRL_CHECK: relying on mdsio_gl.F to pack/unpack the controlvector is unsafe when useSingleCpuIO is true.
