(PID.TID 0000.0001) 
(PID.TID 0000.0001) // ======================================================
(PID.TID 0000.0001) //                      MITgcm UV
(PID.TID 0000.0001) //                      =========
(PID.TID 0000.0001) // ======================================================
(PID.TID 0000.0001) // execution environment starting up...
(PID.TID 0000.0001) 
(PID.TID 0000.0001) // MITgcmUV version:  checkpoint69c
(PID.TID 0000.0001) // Build user:        tshahriar
(PID.TID 0000.0001) // Build host:        sverdrup.oden.utexas.edu
(PID.TID 0000.0001) // Build date:        Wed Jul  9 02:17:17 PM CDT 2025
(PID.TID 0000.0001) 
(PID.TID 0000.0001) // =======================================================
(PID.TID 0000.0001) // Execution Environment parameter file "eedata"
(PID.TID 0000.0001) // =======================================================
(PID.TID 0000.0001) ># Example "eedata" file
(PID.TID 0000.0001) ># Lines beginning "#" are comments
(PID.TID 0000.0001) >#  nTx      :: No. threads per process in X
(PID.TID 0000.0001) >#  nTy      :: No. threads per process in Y
(PID.TID 0000.0001) ># debugMode :: print debug msg (sequence of S/R calls)
(PID.TID 0000.0001) > &EEPARMS
(PID.TID 0000.0001) > nTx=1,
(PID.TID 0000.0001) > nTy=1,
(PID.TID 0000.0001) > /
(PID.TID 0000.0001) ># Note: Some systems use & as the namelist terminator (as shown here).
(PID.TID 0000.0001) >#       Other systems use a / character.
(PID.TID 0000.0001) 
(PID.TID 0000.0001) // =======================================================
(PID.TID 0000.0001) // Computational Grid Specification ( see files "SIZE.h" )
(PID.TID 0000.0001) //                                  ( and "eedata"       )
(PID.TID 0000.0001) // =======================================================
(PID.TID 0000.0001)      nPx =    1 ; /* No. processes in X */
(PID.TID 0000.0001)      nPy =    1 ; /* No. processes in Y */
(PID.TID 0000.0001)      nSx =    1 ; /* No. tiles in X per process */
(PID.TID 0000.0001)      nSy =    1 ; /* No. tiles in Y per process */
(PID.TID 0000.0001)      sNx =   62 ; /* Tile size in X */
(PID.TID 0000.0001)      sNy =   62 ; /* Tile size in Y */
(PID.TID 0000.0001)      OLx =    4 ; /* Tile overlap distance in X */
(PID.TID 0000.0001)      OLy =    4 ; /* Tile overlap distance in Y */
(PID.TID 0000.0001)      nTx =    1 ; /* No. threads in X per process */
(PID.TID 0000.0001)      nTy =    1 ; /* No. threads in Y per process */
(PID.TID 0000.0001)       Nr =   31 ; /* No. levels in the vertical   */
(PID.TID 0000.0001)       Nx =   62 ; /* Total domain size in X ( = nPx*nSx*sNx ) */
(PID.TID 0000.0001)       Ny =   62 ; /* Total domain size in Y ( = nPy*nSy*sNy ) */
(PID.TID 0000.0001)   nTiles =    1 ; /* Total no. tiles per process ( = nSx*nSy ) */
(PID.TID 0000.0001)   nProcs =    1 ; /* Total no. processes ( = nPx*nPy ) */
(PID.TID 0000.0001) nThreads =    1 ; /* Total no. threads per process ( = nTx*nTy ) */
(PID.TID 0000.0001) usingMPI =    F ; /* Flag used to control whether MPI is in use */
(PID.TID 0000.0001)                   /*  note: To execute a program with MPI calls */
(PID.TID 0000.0001)                   /*  it must be launched appropriately e.g     */
(PID.TID 0000.0001)                   /*  "mpirun -np 64 ......"                    */
(PID.TID 0000.0001) useCoupler=   F ; /* Flag used to control communications with   */
(PID.TID 0000.0001)                   /*  other model components, through a coupler */
(PID.TID 0000.0001) useNest2W_parent =    F ;/* Control 2-W Nesting comm */
(PID.TID 0000.0001) useNest2W_child  =    F ;/* Control 2-W Nesting comm */
(PID.TID 0000.0001) debugMode =    F ; /* print debug msg. (sequence of S/R calls)  */
(PID.TID 0000.0001) printMapIncludesZeros=    F ; /* print zeros in Std.Output maps */
(PID.TID 0000.0001) maxLengthPrt1D=   65 /* maxLength of 1D array printed to StdOut */
(PID.TID 0000.0001) 
(PID.TID 0000.0001) // ======================================================
(PID.TID 0000.0001) // Mapping of tiles to threads
(PID.TID 0000.0001) // ======================================================
(PID.TID 0000.0001) // -o- Thread   1, tiles (   1:   1,   1:   1)
(PID.TID 0000.0001) 
(PID.TID 0000.0001) // ======================================================
(PID.TID 0000.0001) // Tile <-> Tile connectvity table
(PID.TID 0000.0001) // ======================================================
(PID.TID 0000.0001) // Tile number: 000001 (process no. = 000000)
(PID.TID 0000.0001) //        WEST: Tile = 000001, Process = 000000, Comm = put
(PID.TID 0000.0001) //                bi = 000001, bj = 000001
(PID.TID 0000.0001) //        EAST: Tile = 000001, Process = 000000, Comm = put
(PID.TID 0000.0001) //                bi = 000001, bj = 000001
(PID.TID 0000.0001) //       SOUTH: Tile = 000001, Process = 000000, Comm = put
(PID.TID 0000.0001) //                bi = 000001, bj = 000001
(PID.TID 0000.0001) //       NORTH: Tile = 000001, Process = 000000, Comm = put
(PID.TID 0000.0001) //                bi = 000001, bj = 000001
(PID.TID 0000.0001) 
(PID.TID 0000.0001)  INI_PARMS: opening model parameter file "data"
(PID.TID 0000.0001)  OPEN_COPY_DATA_FILE: opening file data
(PID.TID 0000.0001) // =======================================================
(PID.TID 0000.0001) // Parameter file "data"
(PID.TID 0000.0001) // =======================================================
(PID.TID 0000.0001) ># Model parameters
(PID.TID 0000.0001) ># Continuous equation parameters
(PID.TID 0000.0001) > &PARM01
(PID.TID 0000.0001) > tRef=23.,23.,23.,22.,21.,20.,19.,17.,16.,15.,14.,12.,11.,10.,9.,8.,
(PID.TID 0000.0001) >      7.,6.,6.,5.,5.,4.,4.,3.,3.,2.,2.,1.,1.,1.,1.,
(PID.TID 0000.0001) > sRef=31*34.5,
(PID.TID 0000.0001) > no_slip_sides=.TRUE.,
(PID.TID 0000.0001) > no_slip_bottom=.TRUE.,
(PID.TID 0000.0001) > bottomDragQuadratic=0.0021,
(PID.TID 0000.0001) > rhonil=1027.5,
(PID.TID 0000.0001) > rhoConstFresh=999.8,
(PID.TID 0000.0001) > eosType='JMD95Z',
(PID.TID 0000.0001) > hFacMinDr=50.,
(PID.TID 0000.0001) > hFacMin=0.3,
(PID.TID 0000.0001) > hFacInf=0.1,
(PID.TID 0000.0001) > hFacSup=5.,
(PID.TID 0000.0001) > implicitFreeSurface=.TRUE.,
(PID.TID 0000.0001) > implicitDiffusion=.TRUE.,
(PID.TID 0000.0001) > implicitViscosity=.TRUE.,
(PID.TID 0000.0001) > viscC4Leith=2.15,
(PID.TID 0000.0001) > viscC4Leithd=2.15,
(PID.TID 0000.0001) > viscA4GridMax=0.8,
(PID.TID 0000.0001) > useAreaViscLength=.TRUE.,
(PID.TID 0000.0001) > tempAdvScheme=33,
(PID.TID 0000.0001) > saltAdvScheme=33,
(PID.TID 0000.0001) > StaggerTimeStep=.TRUE.,
(PID.TID 0000.0001) > vectorInvariantMomentum=.TRUE.,
(PID.TID 0000.0001) > exactConserv=.TRUE.,
(PID.TID 0000.0001) > debuglevel=0,
(PID.TID 0000.0001) > useSingleCPUio=.TRUE.,
(PID.TID 0000.0001) > tempForcing = .TRUE.,
(PID.TID 0000.0001) > saltForcing = .FALSE.,
(PID.TID 0000.0001) > saltStepping=.TRUE.,
(PID.TID 0000.0001) > /
(PID.TID 0000.0001) >
(PID.TID 0000.0001) ># Elliptic solver parameters
(PID.TID 0000.0001) > &PARM02
(PID.TID 0000.0001) > cg2dTargetResidual=1.E-5,
(PID.TID 0000.0001) > cg2dMaxIters=100,
(PID.TID 0000.0001) > /
(PID.TID 0000.0001) >
(PID.TID 0000.0001) ># Time stepping parameters
(PID.TID 0000.0001) > &PARM03
(PID.TID 0000.0001) > startTime=0.,
(PID.TID 0000.0001) > deltaT=1200.,
(PID.TID 0000.0001) >#-for longer run
(PID.TID 0000.0001) ># pChkptFreq=622080000.,
(PID.TID 0000.0001) ># chkptFreq=155520000.,
(PID.TID 0000.0001) ># ----------
(PID.TID 0000.0001) >#-for shorter run
(PID.TID 0000.0001) > pChkptFreq=31104000.,
(PID.TID 0000.0001) > chkptFreq=2592000.,
(PID.TID 0000.0001) >#------
(PID.TID 0000.0001) > dumpFreq=0,
(PID.TID 0000.0001) > monitorFreq=2592000.,
(PID.TID 0000.0001) > monitorSelect=2,
(PID.TID 0000.0001) > tauThetaClimRelax=2592000.,
(PID.TID 0000.0001) >#-run for 1 yrs
(PID.TID 0000.0001) > endTime = 31104000.,
(PID.TID 0000.0001) > /
(PID.TID 0000.0001) >
(PID.TID 0000.0001) ># Gridding parameters
(PID.TID 0000.0001) > &PARM04
(PID.TID 0000.0001) > usingSphericalPolarGrid=.TRUE.,
(PID.TID 0000.0001) > delX=62*1.,
(PID.TID 0000.0001) > delY=62*1.,
(PID.TID 0000.0001) > xgOrigin=-1.,
(PID.TID 0000.0001) > ygOrigin=14.,
(PID.TID 0000.0001) > delR=10., 11.33, 12.83, 14.53, 16.45, 18.63, 21.1, 23.9, 27.07, 30.65,
(PID.TID 0000.0001) >      34.72, 39.32, 44.53, 50.43, 57.12, 64.69, 73.26, 82.97, 93.97,
(PID.TID 0000.0001) >      106.42, 120.53, 136.5, 154.59, 175.08, 198.29, 224.57, 254.34,
(PID.TID 0000.0001) >      288.05, 326.23, 369.47, 418.43,
(PID.TID 0000.0001) > /
(PID.TID 0000.0001) >
(PID.TID 0000.0001) > &PARM05
(PID.TID 0000.0001) > bathyFile='bathy.bin',
(PID.TID 0000.0001) > zonalWindFile='wind.bin',
(PID.TID 0000.0001) > thetaClimFile='SST_relax.bin',
(PID.TID 0000.0001) > /
(PID.TID 0000.0001) 
(PID.TID 0000.0001)  INI_PARMS ; starts to read PARM01
(PID.TID 0000.0001)  INI_PARMS ; read PARM01 : OK
(PID.TID 0000.0001)  INI_PARMS ; starts to read PARM02
(PID.TID 0000.0001)  INI_PARMS ; read PARM02 : OK
(PID.TID 0000.0001)  INI_PARMS ; starts to read PARM03
(PID.TID 0000.0001)  INI_PARMS ; read PARM03 : OK
(PID.TID 0000.0001)  INI_PARMS ; starts to read PARM04
(PID.TID 0000.0001)  INI_PARMS ; read PARM04 : OK
(PID.TID 0000.0001)  INI_PARMS ; starts to read PARM05
(PID.TID 0000.0001)  INI_PARMS ; read PARM05 : OK
(PID.TID 0000.0001)  INI_PARMS: finished reading file "data"
(PID.TID 0000.0001)  PACKAGES_BOOT: opening data.pkg
(PID.TID 0000.0001)  OPEN_COPY_DATA_FILE: opening file data.pkg
(PID.TID 0000.0001) // =======================================================
(PID.TID 0000.0001) // Parameter file "data.pkg"
(PID.TID 0000.0001) // =======================================================
(PID.TID 0000.0001) ># Packages (lines beginning "#" are comments)
(PID.TID 0000.0001) > &PACKAGES
(PID.TID 0000.0001) > useDiagnostics=.TRUE.,
(PID.TID 0000.0001) > useGMRedi=.TRUE.,
(PID.TID 0000.0001) > useGrdchk=.TRUE.,
(PID.TID 0000.0001) >
(PID.TID 0000.0001) > /
(PID.TID 0000.0001) 
(PID.TID 0000.0001)  PACKAGES_BOOT: finished reading data.pkg
(PID.TID 0000.0001)  PACKAGES_BOOT: On/Off package Summary
 --------  pkgs with a standard "usePKG" On/Off switch in "data.pkg":  --------
 pkg/gmredi               compiled   and   used ( useGMRedi                = T )
 pkg/autodiff             compiled   and   used ( useAUTODIFF              = T )
 pkg/grdchk               compiled   and   used ( useGrdchk                = T )
 pkg/ctrl                 compiled   and   used ( useCTRL                  = T )
 pkg/diagnostics          compiled   and   used ( useDiagnostics           = T )
 -------- pkgs without standard "usePKG" On/Off switch in "data.pkg":  --------
 pkg/generic_advdiff      compiled   and   used ( useGAD                   = T )
 pkg/mom_common           compiled   and   used ( momStepping              = T )
 pkg/mom_vecinv           compiled   and   used ( +vectorInvariantMomentum = T )
 pkg/mom_fluxform         compiled but not used ( & not vectorInvariantMom = F )
 pkg/monitor              compiled   and   used ( monitorFreq > 0.         = T )
 pkg/debug                compiled but not used ( debugMode                = F )
 pkg/rw                   compiled   and   used
 pkg/mdsio                compiled   and   used
 pkg/autodiff             compiled   and   used
 pkg/cost                 compiled   and   used
(PID.TID 0000.0001)  PACKAGES_BOOT: End of package Summary
(PID.TID 0000.0001) 
(PID.TID 0000.0001)  GM_READPARMS: opening data.gmredi
(PID.TID 0000.0001)  OPEN_COPY_DATA_FILE: opening file data.gmredi
(PID.TID 0000.0001) // =======================================================
(PID.TID 0000.0001) // Parameter file "data.gmredi"
(PID.TID 0000.0001) // =======================================================
(PID.TID 0000.0001) ># GM+Redi package parameters:
(PID.TID 0000.0001) >#     GM_Small_Number  :: epsilon used in computing the slope
(PID.TID 0000.0001) >#     GM_slopeSqCutoff :: slope^2 cut-off value
(PID.TID 0000.0001) >
(PID.TID 0000.0001) >#-from MOM :
(PID.TID 0000.0001) ># GM_background_K: 	G & Mc.W  diffusion coefficient
(PID.TID 0000.0001) ># GM_maxSlope    :	max slope of isopycnals
(PID.TID 0000.0001) ># GM_Scrit       :	transition for scaling diffusion coefficient
(PID.TID 0000.0001) ># GM_Sd          :	half width scaling for diffusion coefficient
(PID.TID 0000.0001) ># GM_taper_scheme:	slope clipping or one of the tapering schemes
(PID.TID 0000.0001) ># GM_Kmin_horiz  :	horizontal diffusion minimum value
(PID.TID 0000.0001) >
(PID.TID 0000.0001) >#-Option parameters (needs to "define" options in GMREDI_OPTIONS.h")
(PID.TID 0000.0001) ># GM_isopycK     :	isopycnal diffusion coefficient (default=GM_background_K)
(PID.TID 0000.0001) ># GM_AdvForm     :	turn on GM Advective form       (default=Skew flux form)
(PID.TID 0000.0001) >
(PID.TID 0000.0001) > &GM_PARM01
(PID.TID 0000.0001) >  GM_Small_Number  = 1.D-20,
(PID.TID 0000.0001) >  GM_slopeSqCutoff = 1.D+08,
(PID.TID 0000.0001) >  GM_AdvForm         = .FALSE.,
(PID.TID 0000.0001) >#  GM_isopycK         = 1.1D+3,
(PID.TID 0000.0001) >#  GM_background_K    = 0.9D+3,
(PID.TID 0000.0001) >  GM_background_K    = 1.D+3,
(PID.TID 0000.0001) >  GM_taper_scheme    = 'dm95',
(PID.TID 0000.0001) >  GM_maxSlope        = 1.D-2,
(PID.TID 0000.0001) >  GM_Kmin_horiz      = 50.,
(PID.TID 0000.0001) >  GM_Scrit           = 4.D-3,
(PID.TID 0000.0001) >  GM_Sd              = 1.D-3,
(PID.TID 0000.0001) >#  GM_Visbeck_alpha   = 1.5D-2,
(PID.TID 0000.0001) >  GM_Visbeck_alpha   = 0.,
(PID.TID 0000.0001) >  GM_Visbeck_length  = 2.D+5,
(PID.TID 0000.0001) >  GM_Visbeck_depth   = 1.D+3,
(PID.TID 0000.0001) >  GM_Visbeck_maxval_K= 2.5D+3,
(PID.TID 0000.0001) > /
(PID.TID 0000.0001) >
(PID.TID 0000.0001) >
(PID.TID 0000.0001) 
(PID.TID 0000.0001)  GM_READPARMS: finished reading data.gmredi
(PID.TID 0000.0001) AUTODIFF_READPARMS: opening data.autodiff
(PID.TID 0000.0001)  OPEN_COPY_DATA_FILE: opening file data.autodiff
(PID.TID 0000.0001) // =======================================================
(PID.TID 0000.0001) // Parameter file "data.autodiff"
(PID.TID 0000.0001) // =======================================================
(PID.TID 0000.0001) ># =========================
(PID.TID 0000.0001) ># pkg AUTODIFF parameters :
(PID.TID 0000.0001) ># =========================
(PID.TID 0000.0001) >#  inAdExact :: get an exact adjoint (no approximation) (def=.True.)
(PID.TID 0000.0001) >#
(PID.TID 0000.0001) > &AUTODIFF_PARM01
(PID.TID 0000.0001) ># inAdExact = .FALSE.,
(PID.TID 0000.0001) ># useKPPinAdMode = .FALSE.,
(PID.TID 0000.0001) ># useGMRediInAdMode = .FALSE.,
(PID.TID 0000.0001) > /
(PID.TID 0000.0001) 
(PID.TID 0000.0001) AUTODIFF_READPARMS: finished reading data.autodiff
(PID.TID 0000.0001) // ===================================
(PID.TID 0000.0001) // AUTODIFF parameters :
(PID.TID 0000.0001) // ===================================
(PID.TID 0000.0001) inAdExact = /* get an exact adjoint (no approximation) */
(PID.TID 0000.0001)                   T
(PID.TID 0000.0001)     ;
(PID.TID 0000.0001) useApproxAdvectionInAdMode = /* approximate AD-advection */
(PID.TID 0000.0001)                   F
(PID.TID 0000.0001)     ;
(PID.TID 0000.0001) cg2dFullAdjoint = /* use full hand written cg2d adjoint (no approximation) */
(PID.TID 0000.0001)                   F
(PID.TID 0000.0001)     ;
(PID.TID 0000.0001) useKPPinAdMode = /* use KPP in adjoint mode */
(PID.TID 0000.0001)                   F
(PID.TID 0000.0001)     ;
(PID.TID 0000.0001) useGMRediInAdMode = /* use GMRedi in adjoint mode */
(PID.TID 0000.0001)                   T
(PID.TID 0000.0001)     ;
(PID.TID 0000.0001) useSEAICEinAdMode = /* use SEAICE in adjoint mode */
(PID.TID 0000.0001)                   F
(PID.TID 0000.0001)     ;
(PID.TID 0000.0001) useGGL90inAdMode = /* use GGL90 in adjoint mode */
(PID.TID 0000.0001)                   F
(PID.TID 0000.0001)     ;
(PID.TID 0000.0001) useSALT_PLUMEinAdMode = /* use SALT_PLUME in adjoint mode */
(PID.TID 0000.0001)                   F
(PID.TID 0000.0001)     ;
(PID.TID 0000.0001) dumpAdVarExch = /* control adexch before dumpinp */
(PID.TID 0000.0001)                       2
(PID.TID 0000.0001)     ;
(PID.TID 0000.0001) mon_AdVarExch = /* control adexch before monitor */
(PID.TID 0000.0001)                       2
(PID.TID 0000.0001)     ;
(PID.TID 0000.0001) viscFacInFw = /* viscosity factor for forward model */
(PID.TID 0000.0001)                 1.000000000000000E+00
(PID.TID 0000.0001)     ;
(PID.TID 0000.0001) viscFacInAd = /* viscosity factor for adjoint */
(PID.TID 0000.0001)                 1.000000000000000E+00
(PID.TID 0000.0001)     ;
(PID.TID 0000.0001) SIregFacInAd = /* sea ice factor for adjoint model */
(PID.TID 0000.0001)                 1.234567000000000E+05
(PID.TID 0000.0001)     ;
(PID.TID 0000.0001) SIregFacInFw = /* sea ice factor for forward model */
(PID.TID 0000.0001)                 1.234567000000000E+05
(PID.TID 0000.0001)     ;
(PID.TID 0000.0001) 
(PID.TID 0000.0001) OPTIM_READPARMS: opening data.optim
(PID.TID 0000.0001)  OPEN_COPY_DATA_FILE: opening file data.optim
(PID.TID 0000.0001) // =======================================================
(PID.TID 0000.0001) // Parameter file "data.optim"
(PID.TID 0000.0001) // =======================================================
(PID.TID 0000.0001) >#
(PID.TID 0000.0001) ># ********************************
(PID.TID 0000.0001) ># Off-line optimization parameters
(PID.TID 0000.0001) ># ********************************
(PID.TID 0000.0001) > &OPTIM
(PID.TID 0000.0001) > optimcycle=0,
(PID.TID 0000.0001) > /
(PID.TID 0000.0001) 
(PID.TID 0000.0001) OPTIM_READPARMS: finished reading data.optim
(PID.TID 0000.0001) CTRL_READPARMS: opening data.ctrl
(PID.TID 0000.0001)  OPEN_COPY_DATA_FILE: opening file data.ctrl
(PID.TID 0000.0001) // =======================================================
(PID.TID 0000.0001) // Parameter file "data.ctrl"
(PID.TID 0000.0001) // =======================================================
(PID.TID 0000.0001) ># *********************
(PID.TID 0000.0001) ># ECCO controlvariables
(PID.TID 0000.0001) ># *********************
(PID.TID 0000.0001) > &CTRL_NML
(PID.TID 0000.0001) ># doSinglePrecTapelev=.TRUE.,
(PID.TID 0000.0001) > /
(PID.TID 0000.0001) >#
(PID.TID 0000.0001) ># *********************
(PID.TID 0000.0001) ># names for ctrl_pack/unpack
(PID.TID 0000.0001) ># *********************
(PID.TID 0000.0001) > &CTRL_PACKNAMES
(PID.TID 0000.0001) > /
(PID.TID 0000.0001) >#
(PID.TID 0000.0001) ># *********************
(PID.TID 0000.0001) ># names for CTRL_GENARR, CTRL_GENTIM
(PID.TID 0000.0001) ># *********************
(PID.TID 0000.0001) > &CTRL_NML_GENARR
(PID.TID 0000.0001) > xx_genarr3d_file(1)       = 'xx_theta',
(PID.TID 0000.0001) > xx_genarr3d_weight(1)     = 'ones_64b.bin',
(PID.TID 0000.0001) > xx_genarr3d_bounds(1:5,1) = -2.,-1.9,39.,40.,5.,
(PID.TID 0000.0001) >#
(PID.TID 0000.0001) > xx_genarr3d_file(2)       = 'xx_salt',
(PID.TID 0000.0001) > xx_genarr3d_weight(2)     = 'ones_64b.bin',
(PID.TID 0000.0001) > xx_genarr3d_bounds(1:5,2) = 29.,29.5,40.5,41.,5.,
(PID.TID 0000.0001) >#
(PID.TID 0000.0001) > /
(PID.TID 0000.0001) 
(PID.TID 0000.0001) CTRL_READPARMS: finished reading data.ctrl
(PID.TID 0000.0001) read-write ctrl files from current run directory
(PID.TID 0000.0001) COST_READPARMS: opening data.cost
(PID.TID 0000.0001)  OPEN_COPY_DATA_FILE: opening file data.cost
(PID.TID 0000.0001) // =======================================================
(PID.TID 0000.0001) // Parameter file "data.cost"
(PID.TID 0000.0001) // =======================================================
(PID.TID 0000.0001) >#
(PID.TID 0000.0001) >#
(PID.TID 0000.0001) ># ******************
(PID.TID 0000.0001) ># cost function
(PID.TID 0000.0001) ># ******************
(PID.TID 0000.0001) > &COST_NML
(PID.TID 0000.0001) >  mult_atl = 1.,
(PID.TID 0000.0001) > /
(PID.TID 0000.0001) 
(PID.TID 0000.0001) COST_READPARMS: finished reading data.cost
(PID.TID 0000.0001) // =======================================================
(PID.TID 0000.0001) // cost configuration  >>> START <<<
(PID.TID 0000.0001) // =======================================================
(PID.TID 0000.0001) lastinterval =   /* cost interval over which to average ( s ). */
(PID.TID 0000.0001)                 2.592000000000000E+06
(PID.TID 0000.0001)     ;
(PID.TID 0000.0001) cost_mask_file = /* file name of cost mask file */
(PID.TID 0000.0001)               ''
(PID.TID 0000.0001)     ;
(PID.TID 0000.0001) // =======================================================
(PID.TID 0000.0001) // cost configuration  >>> END <<<
(PID.TID 0000.0001) // =======================================================
(PID.TID 0000.0001) 
(PID.TID 0000.0001) GRDCHK_READPARMS: opening data.grdchk
(PID.TID 0000.0001)  OPEN_COPY_DATA_FILE: opening file data.grdchk
(PID.TID 0000.0001) // =======================================================
(PID.TID 0000.0001) // Parameter file "data.grdchk"
(PID.TID 0000.0001) // =======================================================
(PID.TID 0000.0001) >
(PID.TID 0000.0001) ># *******************
(PID.TID 0000.0001) ># ECCO gradient check
(PID.TID 0000.0001) ># *******************
(PID.TID 0000.0001) > &GRDCHK_NML
(PID.TID 0000.0001) > grdchk_eps       = 1.d-5,
(PID.TID 0000.0001) ># nbeg             = 4,
(PID.TID 0000.0001) > iGloPos          = 4,
(PID.TID 0000.0001) > jGloPos          = 8,
(PID.TID 0000.0001) > kGloPos          = 1,
(PID.TID 0000.0001) > nstep            = 1,
(PID.TID 0000.0001) > nend             = 4,
(PID.TID 0000.0001) > grdchkvarname    = "xx_theta",
(PID.TID 0000.0001) > /
(PID.TID 0000.0001) 
(PID.TID 0000.0001) GRDCHK_READPARMS: finished reading data.grdchk
(PID.TID 0000.0001)  DIAGNOSTICS_READPARMS: opening data.diagnostics
(PID.TID 0000.0001)  OPEN_COPY_DATA_FILE: opening file data.diagnostics
(PID.TID 0000.0001) // =======================================================
(PID.TID 0000.0001) // Parameter file "data.diagnostics"
(PID.TID 0000.0001) // =======================================================
(PID.TID 0000.0001) ># Diagnostic Package Choices
(PID.TID 0000.0001) >#--------------------
(PID.TID 0000.0001) >#  dumpAtLast (logical): always write output at the end of simulation (default=F)
(PID.TID 0000.0001) >#  diag_mnc   (logical): write to NetCDF files (default=useMNC)
(PID.TID 0000.0001) >#--for each output-stream:
(PID.TID 0000.0001) >#  fileName(n) : prefix of the output file name (max 80c long) for outp.stream n
(PID.TID 0000.0001) >#  frequency(n):< 0 : write snap-shot output every |frequency| seconds
(PID.TID 0000.0001) >#               > 0 : write time-average output every frequency seconds
(PID.TID 0000.0001) >#  timePhase(n)     : write at time = timePhase + multiple of |frequency|
(PID.TID 0000.0001) >#    averagingFreq  : frequency (in s) for periodic averaging interval
(PID.TID 0000.0001) >#    averagingPhase : phase     (in s) for periodic averaging interval
(PID.TID 0000.0001) >#    repeatCycle    : number of averaging intervals in 1 cycle
(PID.TID 0000.0001) >#  levels(:,n) : list of levels to write to file (Notes: declared as REAL)
(PID.TID 0000.0001) >#                when this entry is missing, select all common levels of this list
(PID.TID 0000.0001) >#  fields(:,n) : list of selected diagnostics fields (8.c) in outp.stream n
(PID.TID 0000.0001) >#                (see "available_diagnostics.log" file for the full list of diags)
(PID.TID 0000.0001) >#  missing_value(n) : missing value for real-type fields in output file "n"
(PID.TID 0000.0001) >#  fileFlags(n)     : specific code (8c string) for output file "n"
(PID.TID 0000.0001) >#--------------------
(PID.TID 0000.0001) > &DIAGNOSTICS_LIST
(PID.TID 0000.0001) >  fields(1:3,1)  = 'ETAN    ','TRELAX  ','MXLDEPTH',
(PID.TID 0000.0001) >  fileName(1) = 'surfDiag',
(PID.TID 0000.0001) >  frequency(1) = 432000.,
(PID.TID 0000.0001) >
(PID.TID 0000.0001) >  fields(1:12,2)  = 'THETA   ','PHIHYD  ',
(PID.TID 0000.0001) >                   'UVEL    ','VVEL    ','WVEL    ',
(PID.TID 0000.0001) >                   'THETASQ', 'UVELSQ', 'VVELSQ', 'WVELSQ',
(PID.TID 0000.0001) >                   'PhiVEL', 'PsiVEL', 'momKE'
(PID.TID 0000.0001) ># did not specify levels => all levels are selected
(PID.TID 0000.0001) >   fileName(2) = 'dynDiag',
(PID.TID 0000.0001) >  frequency(2) = 432000.,
(PID.TID 0000.0001) > /
(PID.TID 0000.0001) >
(PID.TID 0000.0001) >#---------------------------------------
(PID.TID 0000.0001) >#- Eddy-permitting run, diagnose vorticity (not computed when using uniform Ah)
(PID.TID 0000.0001) ># fields(1:2,3) = 'momVort3', 'momHDiv ',
(PID.TID 0000.0001) ># frequency(3) = 86400.,
(PID.TID 0000.0001) ># filename(3) = 'state_vort',
(PID.TID 0000.0001) ># &
(PID.TID 0000.0001) >
(PID.TID 0000.0001) ># GM diagnostics
(PID.TID 0000.0001) >#- Note: comment out this diagnostics list below if useGMRedi=.FALSE.
(PID.TID 0000.0001) >#        or you will get warnings messages in STDERR
(PID.TID 0000.0001) >  fields(1:2,3) = 'GM_PsiX ', 'GM_PsiY ',
(PID.TID 0000.0001) >  frequency(3) = 432000.,
(PID.TID 0000.0001) >  filename(3) = 'GM_diags',
(PID.TID 0000.0001) >
(PID.TID 0000.0001) >
(PID.TID 0000.0001) ># Parameter for Diagnostics of per level statistics:
(PID.TID 0000.0001) >#--------------------
(PID.TID 0000.0001) >#  diagSt_mnc (logical): write stat-diags to NetCDF files (default=diag_mnc)
(PID.TID 0000.0001) >#  diagSt_regMaskFile : file containing the region-mask to read-in
(PID.TID 0000.0001) >#  nSetRegMskFile   : number of region-mask sets within the region-mask file
(PID.TID 0000.0001) >#  set_regMask(i)   : region-mask set-index that identifies the region "i"
(PID.TID 0000.0001) >#  val_regMask(i)   : region "i" identifier value in the region mask
(PID.TID 0000.0001) >#--for each output-stream:
(PID.TID 0000.0001) >#  stat_fName(n) : prefix of the output file name (max 80c long) for outp.stream n
(PID.TID 0000.0001) >#  stat_freq(n):< 0 : write snap-shot output every |stat_freq| seconds
(PID.TID 0000.0001) >#               > 0 : write time-average output every stat_freq seconds
(PID.TID 0000.0001) >#  stat_phase(n)    : write at time = stat_phase + multiple of |stat_freq|
(PID.TID 0000.0001) >#  stat_region(:,n) : list of "regions" (default: 1 region only=global)
(PID.TID 0000.0001) >#  stat_fields(:,n) : list of selected diagnostics fields (8.c) in outp.stream n
(PID.TID 0000.0001) >#                (see "available_diagnostics.log" file for the full list of diags)
(PID.TID 0000.0001) >#--------------------
(PID.TID 0000.0001) > &DIAG_STATIS_PARMS
(PID.TID 0000.0001) >  stat_fields(1:2,1) = 'THETA   ','TRELAX  ',
(PID.TID 0000.0001) >  stat_fName(1) = 'dynStDiag',
(PID.TID 0000.0001) >  stat_freq(1) = 432000.,
(PID.TID 0000.0001) > /
(PID.TID 0000.0001) 
(PID.TID 0000.0001) S/R DIAGNOSTICS_READPARMS, read namelist "diagnostics_list": start
(PID.TID 0000.0001) S/R DIAGNOSTICS_READPARMS, read namelist "diagnostics_list": OK
(PID.TID 0000.0001) S/R DIAGNOSTICS_READPARMS, read namelist "DIAG_STATIS_PARMS": start
(PID.TID 0000.0001) S/R DIAGNOSTICS_READPARMS, read namelist "DIAG_STATIS_PARMS": OK
(PID.TID 0000.0001) -----------------------------------------------------
(PID.TID 0000.0001)  DIAGNOSTICS_READPARMS: global parameter summary:
(PID.TID 0000.0001)  diag_dBugLevel = /* level of printed debug messages */
(PID.TID 0000.0001)                       0
(PID.TID 0000.0001)     ;
(PID.TID 0000.0001)  dumpAtLast = /* always write time-ave diags at the end */
(PID.TID 0000.0001)                   F
(PID.TID 0000.0001)     ;
(PID.TID 0000.0001)  diag_mnc =   /* write NetCDF output files */
(PID.TID 0000.0001)                   F
(PID.TID 0000.0001)     ;
(PID.TID 0000.0001)  useMissingValue = /* put MissingValue where mask = 0 */
(PID.TID 0000.0001)                   F
(PID.TID 0000.0001)     ;
(PID.TID 0000.0001)  diagCG_maxIters = /* max number of iters in diag_cg2d */
(PID.TID 0000.0001)                     100
(PID.TID 0000.0001)     ;
(PID.TID 0000.0001)  diagCG_resTarget = /* residual target for diag_cg2d */
(PID.TID 0000.0001)                 1.000000000000000E-05
(PID.TID 0000.0001)     ;
(PID.TID 0000.0001)  diagCG_pcOffDFac = /* preconditioner off-diagonal factor */
(PID.TID 0000.0001)                 9.611687812379854E-01
(PID.TID 0000.0001)     ;
(PID.TID 0000.0001) -----------------------------------------------------
(PID.TID 0000.0001)  DIAGNOSTICS_READPARMS: active diagnostics summary:
(PID.TID 0000.0001) -----------------------------------------------------
(PID.TID 0000.0001) Creating Output Stream: surfDiag
(PID.TID 0000.0001) Output Frequency:     432000.000000 ; Phase:           0.000000
(PID.TID 0000.0001)  Averaging Freq.:     432000.000000 , Phase:           0.000000 , Cycle:   1
(PID.TID 0000.0001)  missing value: -9.990000000000E+02
(PID.TID 0000.0001)  Levels:    will be set later
(PID.TID 0000.0001)  Fields:    ETAN     TRELAX   MXLDEPTH
(PID.TID 0000.0001) Creating Output Stream: dynDiag
(PID.TID 0000.0001) Output Frequency:     432000.000000 ; Phase:           0.000000
(PID.TID 0000.0001)  Averaging Freq.:     432000.000000 , Phase:           0.000000 , Cycle:   1
(PID.TID 0000.0001)  missing value: -9.990000000000E+02
(PID.TID 0000.0001)  Levels:    will be set later
(PID.TID 0000.0001)  Fields:    THETA    PHIHYD   UVEL     VVEL     WVEL     THETASQ  UVELSQ   VVELSQ   WVELSQ   PhiVEL
(PID.TID 0000.0001)  Fields:    PsiVEL   momKE
(PID.TID 0000.0001) -----------------------------------------------------
(PID.TID 0000.0001)  DIAGNOSTICS_READPARMS: statistics diags. summary:
(PID.TID 0000.0001) Creating Stats. Output Stream: dynStDiag
(PID.TID 0000.0001) Output Frequency:     432000.000000 ; Phase:           0.000000
(PID.TID 0000.0001)  Regions:   0
(PID.TID 0000.0001)  Fields:    THETA    TRELAX
(PID.TID 0000.0001) -----------------------------------------------------
(PID.TID 0000.0001) 
(PID.TID 0000.0001) SET_PARMS: done
(PID.TID 0000.0001) Enter INI_VERTICAL_GRID: setInterFDr=    T ; setCenterDr=    F
(PID.TID 0000.0001) %MON XC_max                       =   6.0500000000000E+01
(PID.TID 0000.0001) %MON XC_min                       =  -5.0000000000000E-01
(PID.TID 0000.0001) %MON XC_mean                      =   3.0000000000000E+01
(PID.TID 0000.0001) %MON XC_sd                        =   1.7895530168173E+01
(PID.TID 0000.0001) %MON XG_max                       =   6.0000000000000E+01
(PID.TID 0000.0001) %MON XG_min                       =  -1.0000000000000E+00
(PID.TID 0000.0001) %MON XG_mean                      =   2.9500000000000E+01
(PID.TID 0000.0001) %MON XG_sd                        =   1.7895530168173E+01
(PID.TID 0000.0001) %MON DXC_max                      =   1.0763620848898E+05
(PID.TID 0000.0001) %MON DXC_min                      =   2.7836616228646E+04
(PID.TID 0000.0001) %MON DXC_mean                     =   7.4835486957243E+04
(PID.TID 0000.0001) %MON DXC_sd                       =   2.4080389995677E+04
(PID.TID 0000.0001) %MON DXF_max                      =   1.0763620848898E+05
(PID.TID 0000.0001) %MON DXF_min                      =   2.7836616228646E+04
(PID.TID 0000.0001) %MON DXF_mean                     =   7.4835486957243E+04
(PID.TID 0000.0001) %MON DXF_sd                       =   2.4080389995677E+04
(PID.TID 0000.0001) %MON DXG_max                      =   1.0787502725165E+05
(PID.TID 0000.0001) %MON DXG_min                      =   2.8774847489886E+04
(PID.TID 0000.0001) %MON DXG_mean                     =   7.5485691984677E+04
(PID.TID 0000.0001) %MON DXG_sd                       =   2.3877575243700E+04
(PID.TID 0000.0001) %MON DXV_max                      =   1.0787502725165E+05
(PID.TID 0000.0001) %MON DXV_min                      =   2.8774847489886E+04
(PID.TID 0000.0001) %MON DXV_mean                     =   7.5485691984677E+04
(PID.TID 0000.0001) %MON DXV_sd                       =   2.3877575243700E+04
(PID.TID 0000.0001) %MON YC_max                       =   7.5500000000000E+01
(PID.TID 0000.0001) %MON YC_min                       =   1.4500000000000E+01
(PID.TID 0000.0001) %MON YC_mean                      =   4.5000000000000E+01
(PID.TID 0000.0001) %MON YC_sd                        =   1.7895530168173E+01
(PID.TID 0000.0001) %MON YG_max                       =   7.5000000000000E+01
(PID.TID 0000.0001) %MON YG_min                       =   1.4000000000000E+01
(PID.TID 0000.0001) %MON YG_mean                      =   4.4500000000000E+01
(PID.TID 0000.0001) %MON YG_sd                        =   1.7895530168173E+01
(PID.TID 0000.0001) %MON DYC_max                      =   1.1117747335204E+05
(PID.TID 0000.0001) %MON DYC_min                      =   1.1117747335204E+05
(PID.TID 0000.0001) %MON DYC_mean                     =   1.1117747335203E+05
(PID.TID 0000.0001) %MON DYC_sd                       =   6.1554601415992E-09
(PID.TID 0000.0001) %MON DYF_max                      =   1.1117747335204E+05
(PID.TID 0000.0001) %MON DYF_min                      =   1.1117747335204E+05
(PID.TID 0000.0001) %MON DYF_mean                     =   1.1117747335203E+05
(PID.TID 0000.0001) %MON DYF_sd                       =   6.1554601415992E-09
(PID.TID 0000.0001) %MON DYG_max                      =   1.1117747335204E+05
(PID.TID 0000.0001) %MON DYG_min                      =   1.1117747335204E+05
(PID.TID 0000.0001) %MON DYG_mean                     =   1.1117747335203E+05
(PID.TID 0000.0001) %MON DYG_sd                       =   6.1554601415992E-09
(PID.TID 0000.0001) %MON DYU_max                      =   1.1117747335204E+05
(PID.TID 0000.0001) %MON DYU_min                      =   1.1117747335204E+05
(PID.TID 0000.0001) %MON DYU_mean                     =   1.1117747335203E+05
(PID.TID 0000.0001) %MON DYU_sd                       =   6.1554601415992E-09
(PID.TID 0000.0001) %MON RA_max                       =   1.1966569815247E+10
(PID.TID 0000.0001) %MON RA_min                       =   3.0947653786454E+09
(PID.TID 0000.0001) %MON RA_mean                      =   8.3199147564140E+09
(PID.TID 0000.0001) %MON RA_sd                        =   2.6771629371464E+09
(PID.TID 0000.0001) %MON RAW_max                      =   1.1966569815247E+10
(PID.TID 0000.0001) %MON RAW_min                      =   3.0947653786454E+09
(PID.TID 0000.0001) %MON RAW_mean                     =   8.3199147564140E+09
(PID.TID 0000.0001) %MON RAW_sd                       =   2.6771629371464E+09
(PID.TID 0000.0001) %MON RAS_max                      =   1.1993120744872E+10
(PID.TID 0000.0001) %MON RAS_min                      =   3.1990742357492E+09
(PID.TID 0000.0001) %MON RAS_mean                     =   8.3922019910189E+09
(PID.TID 0000.0001) %MON RAS_sd                       =   2.6546147916555E+09
(PID.TID 0000.0001) %MON RAZ_max                      =   1.1993120744872E+10
(PID.TID 0000.0001) %MON RAZ_min                      =   3.1990742357492E+09
(PID.TID 0000.0001) %MON RAZ_mean                     =   8.3922019910189E+09
(PID.TID 0000.0001) %MON RAZ_sd                       =   2.6546147916555E+09
(PID.TID 0000.0001) %MON AngleCS_max                  =   1.0000000000000E+00
(PID.TID 0000.0001) %MON AngleCS_min                  =   1.0000000000000E+00
(PID.TID 0000.0001) %MON AngleCS_mean                 =   1.0000000000000E+00
(PID.TID 0000.0001) %MON AngleCS_sd                   =   0.0000000000000E+00
(PID.TID 0000.0001) %MON AngleSN_max                  =   0.0000000000000E+00
(PID.TID 0000.0001) %MON AngleSN_min                  =   0.0000000000000E+00
(PID.TID 0000.0001) %MON AngleSN_mean                 =   0.0000000000000E+00
(PID.TID 0000.0001) %MON AngleSN_sd                   =   0.0000000000000E+00
(PID.TID 0000.0001) GAD_INIT_FIXED: GAD_OlMinSize=  2  0  1
(PID.TID 0000.0001) 
(PID.TID 0000.0001) // ===================================
(PID.TID 0000.0001) // GAD parameters :
(PID.TID 0000.0001) // ===================================
(PID.TID 0000.0001) tempAdvScheme =   /* Temp. Horiz.Advection scheme selector */
(PID.TID 0000.0001)                      33
(PID.TID 0000.0001)     ;
(PID.TID 0000.0001) tempVertAdvScheme =   /* Temp. Vert. Advection scheme selector */
(PID.TID 0000.0001)                      33
(PID.TID 0000.0001)     ;
(PID.TID 0000.0001) tempMultiDimAdvec =   /* use Muti-Dim Advec method for Temp */
(PID.TID 0000.0001)                   T
(PID.TID 0000.0001)     ;
(PID.TID 0000.0001) tempSOM_Advection = /* use 2nd Order Moment Advection for Temp */
(PID.TID 0000.0001)                   F
(PID.TID 0000.0001)     ;
(PID.TID 0000.0001) AdamsBashforthGt = /* apply Adams-Bashforth extrapolation on Gt */
(PID.TID 0000.0001)                   F
(PID.TID 0000.0001)     ;
(PID.TID 0000.0001) AdamsBashforth_T = /* apply Adams-Bashforth extrapolation on Temp */
(PID.TID 0000.0001)                   F
(PID.TID 0000.0001)     ;
(PID.TID 0000.0001) saltAdvScheme =   /* Salt. Horiz.advection scheme selector */
(PID.TID 0000.0001)                      33
(PID.TID 0000.0001)     ;
(PID.TID 0000.0001) saltVertAdvScheme =   /* Salt. Vert. Advection scheme selector */
(PID.TID 0000.0001)                      33
(PID.TID 0000.0001)     ;
(PID.TID 0000.0001) saltMultiDimAdvec =   /* use Muti-Dim Advec method for Salt */
(PID.TID 0000.0001)                   T
(PID.TID 0000.0001)     ;
(PID.TID 0000.0001) saltSOM_Advection = /* use 2nd Order Moment Advection for Salt */
(PID.TID 0000.0001)                   F
(PID.TID 0000.0001)     ;
(PID.TID 0000.0001) AdamsBashforthGs = /* apply Adams-Bashforth extrapolation on Gs */
(PID.TID 0000.0001)                   F
(PID.TID 0000.0001)     ;
(PID.TID 0000.0001) AdamsBashforth_S = /* apply Adams-Bashforth extrapolation on Salt */
(PID.TID 0000.0001)                   F
(PID.TID 0000.0001)     ;
(PID.TID 0000.0001) // ===================================
(PID.TID 0000.0001) CTRL_INIT_FIXED: ivar=   2 = number of CTRL variables defined
(PID.TID 0000.0001) 
(PID.TID 0000.0001) ctrl-wet 1:    nvarlength =       164576
(PID.TID 0000.0001) ctrl-wet 2: surface wet C =         2892
(PID.TID 0000.0001) ctrl-wet 3: surface wet W =         2832
(PID.TID 0000.0001) ctrl-wet 4: surface wet S =         2832
(PID.TID 0000.0001) ctrl-wet 5: 3D wet points =        82288
(PID.TID 0000.0001) ctrl-wet 6: no recs for ivar =     1           1
(PID.TID 0000.0001) ctrl-wet 6: no recs for ivar =     2           1
(PID.TID 0000.0001) ctrl-wet 6: no recs for ivar =     3           0
(PID.TID 0000.0001) ctrl-wet 6: no recs for ivar =     4           0
(PID.TID 0000.0001) ctrl-wet 6: no recs for ivar =     5           0
(PID.TID 0000.0001) ctrl-wet 6: no recs for ivar =     6           0
(PID.TID 0000.0001) ctrl-wet 6: no recs for ivar =     7           0
(PID.TID 0000.0001) ctrl-wet -------------------------------------------------
(PID.TID 0000.0001) ctrl-wet 13: global nvarlength for Nr =   31      164576
(PID.TID 0000.0001) ctrl-wet -------------------------------------------------
(PID.TID 0000.0001) ctrl-wet 14: global nWet C/S/W k=    1        2892        2832        2832
(PID.TID 0000.0001) ctrl-wet 14: global nWet C/S/W k=    2        2892        2832        2832
(PID.TID 0000.0001) ctrl-wet 14: global nWet C/S/W k=    3        2892        2832        2832
(PID.TID 0000.0001) ctrl-wet 14: global nWet C/S/W k=    4        2892        2832        2832
(PID.TID 0000.0001) ctrl-wet 14: global nWet C/S/W k=    5        2892        2832        2832
(PID.TID 0000.0001) ctrl-wet 14: global nWet C/S/W k=    6        2892        2832        2832
(PID.TID 0000.0001) ctrl-wet 14: global nWet C/S/W k=    7        2892        2832        2832
(PID.TID 0000.0001) ctrl-wet 14: global nWet C/S/W k=    8        2676        2618        2618
(PID.TID 0000.0001) ctrl-wet 14: global nWet C/S/W k=    9        2660        2602        2602
(PID.TID 0000.0001) ctrl-wet 14: global nWet C/S/W k=   10        2644        2586        2586
(PID.TID 0000.0001) ctrl-wet 14: global nWet C/S/W k=   11        2632        2574        2574
(PID.TID 0000.0001) ctrl-wet 14: global nWet C/S/W k=   12        2632        2574        2574
(PID.TID 0000.0001) ctrl-wet 14: global nWet C/S/W k=   13        2624        2566        2566
(PID.TID 0000.0001) ctrl-wet 14: global nWet C/S/W k=   14        2608        2550        2550
(PID.TID 0000.0001) ctrl-wet 14: global nWet C/S/W k=   15        2608        2550        2550
(PID.TID 0000.0001) ctrl-wet 14: global nWet C/S/W k=   16        2600        2542        2542
(PID.TID 0000.0001) ctrl-wet 14: global nWet C/S/W k=   17        2600        2542        2542
(PID.TID 0000.0001) ctrl-wet 14: global nWet C/S/W k=   18        2600        2542        2542
(PID.TID 0000.0001) ctrl-wet 14: global nWet C/S/W k=   19        2584        2526        2526
(PID.TID 0000.0001) ctrl-wet 14: global nWet C/S/W k=   20        2584        2526        2526
(PID.TID 0000.0001) ctrl-wet 14: global nWet C/S/W k=   21        2584        2526        2526
(PID.TID 0000.0001) ctrl-wet 14: global nWet C/S/W k=   22        2584        2526        2526
(PID.TID 0000.0001) ctrl-wet 14: global nWet C/S/W k=   23        2576        2518        2518
(PID.TID 0000.0001) ctrl-wet 14: global nWet C/S/W k=   24        2576        2518        2518
(PID.TID 0000.0001) ctrl-wet 14: global nWet C/S/W k=   25        2568        2510        2510
(PID.TID 0000.0001) ctrl-wet 14: global nWet C/S/W k=   26        2536        2480        2480
(PID.TID 0000.0001) ctrl-wet 14: global nWet C/S/W k=   27        2528        2472        2472
(PID.TID 0000.0001) ctrl-wet 14: global nWet C/S/W k=   28        2528        2472        2472
(PID.TID 0000.0001) ctrl-wet 14: global nWet C/S/W k=   29        2512        2456        2456
(PID.TID 0000.0001) ctrl-wet 14: global nWet C/S/W k=   30        2504        2448        2448
(PID.TID 0000.0001) ctrl-wet 14: global nWet C/S/W k=   31        2496        2440        2440
(PID.TID 0000.0001) ctrl-wet -------------------------------------------------
(PID.TID 0000.0001) ctrl_init_wet: no. of control variables:            2
(PID.TID 0000.0001) ctrl_init_wet: control vector length:          164576
(PID.TID 0000.0001) 
(PID.TID 0000.0001) // =======================================================
(PID.TID 0000.0001) // control vector configuration  >>> START <<<
(PID.TID 0000.0001) // =======================================================
(PID.TID 0000.0001) 
(PID.TID 0000.0001)  Total number of ocean points per tile:
(PID.TID 0000.0001)  --------------------------------------
(PID.TID 0000.0001)  sNx*sNy*Nr =   119164
(PID.TID 0000.0001) 
(PID.TID 0000.0001)  Number of ocean points per tile:
(PID.TID 0000.0001)  --------------------------------
(PID.TID 0000.0001)  bi,bj,#(c/s/w): 001 001   82288   80488   80488
(PID.TID 0000.0001) 
(PID.TID 0000.0001)  -> 3d control, genarr3d no.  1 is in use
(PID.TID 0000.0001)       file       = xx_theta
(PID.TID 0000.0001)       ncvartype  = Arr3D
(PID.TID 0000.0001)       index      =     1  (use this for pkg/grdchk)
(PID.TID 0000.0001)       ncvarindex =     1
(PID.TID 0000.0001)       weight     = ones_64b.bin
(PID.TID 0000.0001) 
(PID.TID 0000.0001)  -> 3d control, genarr3d no.  2 is in use
(PID.TID 0000.0001)       file       = xx_salt
(PID.TID 0000.0001)       ncvartype  = Arr3D
(PID.TID 0000.0001)       index      =     2  (use this for pkg/grdchk)
(PID.TID 0000.0001)       ncvarindex =     2
(PID.TID 0000.0001)       weight     = ones_64b.bin
(PID.TID 0000.0001) 
(PID.TID 0000.0001) // =======================================================
(PID.TID 0000.0001) // control vector configuration  >>> END <<<
(PID.TID 0000.0001) // =======================================================
(PID.TID 0000.0001) 
(PID.TID 0000.0001) ------------------------------------------------------------
(PID.TID 0000.0001) DIAGNOSTICS_SET_LEVELS: done
(PID.TID 0000.0001)  Total Nb of available Diagnostics: ndiagt=   230
(PID.TID 0000.0001) SETDIAG: Allocate  1 x  1 Levels for Diagnostic #    23 ETAN
(PID.TID 0000.0001) SETDIAG: Allocate  1 x  1 Levels for Diagnostic #    89 TRELAX
(PID.TID 0000.0001) SETDIAG: Allocate  1 x  1 Levels for Diagnostic #    76 MXLDEPTH
(PID.TID 0000.0001) SETDIAG: Allocate 31 x  1 Levels for Diagnostic #    26 THETA
(PID.TID 0000.0001) SETDIAG: Allocate 31 x  1 Levels for Diagnostic #    71 PHIHYD
(PID.TID 0000.0001) SETDIAG: Allocate 31 x  1 Levels for Diagnostic #    30 UVEL
(PID.TID 0000.0001) SETDIAG: Allocate 31 x  1 Levels for Diagnostic #    31 VVEL
(PID.TID 0000.0001) SETDIAG: Allocate 31 x  1 Levels for Diagnostic #    32 WVEL
(PID.TID 0000.0001) SETDIAG: Allocate 31 x  1 Levels for Diagnostic #    33 THETASQ
(PID.TID 0000.0001) SETDIAG: Allocate 31 x  1 Levels for Diagnostic #    36 UVELSQ
(PID.TID 0000.0001) SETDIAG: Allocate 31 x  1 Levels for Diagnostic #    37 VVELSQ
(PID.TID 0000.0001) SETDIAG: Allocate 31 x  1 Levels for Diagnostic #    38 WVELSQ
(PID.TID 0000.0001) SETDIAG: Diag #    48 PhiVEL   processed from Diag #    45 UVELMASS
(PID.TID 0000.0001) SETDIAG: Allocate 31 x  1 Levels for Diagnostic #    45 UVELMASS
(PID.TID 0000.0001) SETDIAG: Allocate 31 x  1 Levels for Mate Diag. #    46 VVELMASS
(PID.TID 0000.0001) SETDIAG: Diag #    49 PsiVEL   processed from Diag #    48 PhiVEL
(PID.TID 0000.0001) - NOTE - SETDIAG:  Diagnostic  #    48 PhiVEL   is already set
(PID.TID 0000.0001) SETDIAG: Allocate 31 x  1 Levels for Diagnostic #   168 momKE
(PID.TID 0000.0001)   space allocated for all diagnostics:     375 levels
(PID.TID 0000.0001)   set mate pointer for diag #    30  UVEL     , Parms: UUR     MR , mate:    31
(PID.TID 0000.0001)   set mate pointer for diag #    31  VVEL     , Parms: VVR     MR , mate:    30
(PID.TID 0000.0001)   set mate pointer for diag #    36  UVELSQ   , Parms: UURP    MR , mate:    37
(PID.TID 0000.0001)   set mate pointer for diag #    37  VVELSQ   , Parms: VVRP    MR , mate:    36
(PID.TID 0000.0001)   set mate pointer for diag #    45  UVELMASS , Parms: UUr     MR , mate:    46
(PID.TID 0000.0001)   set mate pointer for diag #    46  VVELMASS , Parms: VVr     MR , mate:    45
(PID.TID 0000.0001) DIAGNOSTICS_SET_POINTERS: Set levels for Outp.Stream: surfDiag
(PID.TID 0000.0001)  Levels:       1.
(PID.TID 0000.0001) DIAGNOSTICS_SET_POINTERS: Set levels for Outp.Stream: dynDiag
(PID.TID 0000.0001)  Levels:       1.   2.   3.   4.   5.   6.   7.   8.   9.  10.  11.  12.  13.  14.  15.  16.  17.  18.  19.  20.
(PID.TID 0000.0001)  Levels:      21.  22.  23.  24.  25.  26.  27.  28.  29.  30.  31.
(PID.TID 0000.0001) DIAGNOSTICS_SET_POINTERS: done, use     375 levels (numDiags =     620 )
(PID.TID 0000.0001) ------------------------------------------------------------
(PID.TID 0000.0001) DIAGSTATS_SET_REGIONS: define no region
(PID.TID 0000.0001) ------------------------------------------------------------
(PID.TID 0000.0001) SETDIAG: Allocate 31 Levels for Stats-Diag #    26 THETA
(PID.TID 0000.0001) SETDIAG: Allocate  1 Levels for Stats-Diag #    89 TRELAX
(PID.TID 0000.0001)   space allocated for all stats-diags:      32 levels
(PID.TID 0000.0001) DIAGSTATS_SET_POINTERS: done, use      32 levels (diagSt_size=     310 )
(PID.TID 0000.0001) ------------------------------------------------------------
(PID.TID 0000.0001) %MON fCori_max                    =   1.4119704352640E-04
(PID.TID 0000.0001) %MON fCori_min                    =   3.6516038314991E-05
(PID.TID 0000.0001) %MON fCori_mean                   =   9.8169098090287E-05
(PID.TID 0000.0001) %MON fCori_sd                     =   3.1588625445689E-05
(PID.TID 0000.0001) %MON fCoriG_max                   =   1.4087300867102E-04
(PID.TID 0000.0001) %MON fCoriG_min                   =   3.5282486883545E-05
(PID.TID 0000.0001) %MON fCoriG_mean                  =   9.7308683992512E-05
(PID.TID 0000.0001) %MON fCoriG_sd                    =   3.1852455422807E-05
(PID.TID 0000.0001) %MON fCoriCos_max                 =   1.4119704352640E-04
(PID.TID 0000.0001) %MON fCoriCos_min                 =   3.6516038314991E-05
(PID.TID 0000.0001) %MON fCoriCos_mean                =   9.8169098090291E-05
(PID.TID 0000.0001) %MON fCoriCos_sd                  =   3.1588625445688E-05
(PID.TID 0000.0001) INI_CG2D: CG2D normalisation factor =  8.6024439359483882E-05
(PID.TID 0000.0001) 
(PID.TID 0000.0001) // =======================================================
(PID.TID 0000.0001) // Model configuration
(PID.TID 0000.0001) // =======================================================
(PID.TID 0000.0001) //
(PID.TID 0000.0001) // "Physical" paramters ( PARM01 in namelist )
(PID.TID 0000.0001) //
(PID.TID 0000.0001) buoyancyRelation = /* Type of relation to get Buoyancy */
(PID.TID 0000.0001)               'OCEANIC'
(PID.TID 0000.0001)     ;
(PID.TID 0000.0001) fluidIsAir   =  /* fluid major constituent is Air */
(PID.TID 0000.0001)                   F
(PID.TID 0000.0001)     ;
(PID.TID 0000.0001) fluidIsWater =  /* fluid major constituent is Water */
(PID.TID 0000.0001)                   T
(PID.TID 0000.0001)     ;
(PID.TID 0000.0001) usingPCoords =  /* use p (or p*) vertical coordinate */
(PID.TID 0000.0001)                   F
(PID.TID 0000.0001)     ;
(PID.TID 0000.0001) usingZCoords =  /* use z (or z*) vertical coordinate */
(PID.TID 0000.0001)                   T
(PID.TID 0000.0001)     ;
(PID.TID 0000.0001) tRef =   /* Reference temperature profile ( oC or K ) */
(PID.TID 0000.0001)     3 @  2.300000000000000E+01,             /* K =  1:  3 */
(PID.TID 0000.0001)                 2.200000000000000E+01,      /* K =  4 */
(PID.TID 0000.0001)                 2.100000000000000E+01,      /* K =  5 */
(PID.TID 0000.0001)                 2.000000000000000E+01,      /* K =  6 */
(PID.TID 0000.0001)                 1.900000000000000E+01,      /* K =  7 */
(PID.TID 0000.0001)                 1.700000000000000E+01,      /* K =  8 */
(PID.TID 0000.0001)                 1.600000000000000E+01,      /* K =  9 */
(PID.TID 0000.0001)                 1.500000000000000E+01,      /* K = 10 */
(PID.TID 0000.0001)                 1.400000000000000E+01,      /* K = 11 */
(PID.TID 0000.0001)                 1.200000000000000E+01,      /* K = 12 */
(PID.TID 0000.0001)                 1.100000000000000E+01,      /* K = 13 */
(PID.TID 0000.0001)                 1.000000000000000E+01,      /* K = 14 */
(PID.TID 0000.0001)                 9.000000000000000E+00,      /* K = 15 */
(PID.TID 0000.0001)                 8.000000000000000E+00,      /* K = 16 */
(PID.TID 0000.0001)                 7.000000000000000E+00,      /* K = 17 */
(PID.TID 0000.0001)     2 @  6.000000000000000E+00,             /* K = 18: 19 */
(PID.TID 0000.0001)     2 @  5.000000000000000E+00,             /* K = 20: 21 */
(PID.TID 0000.0001)     2 @  4.000000000000000E+00,             /* K = 22: 23 */
(PID.TID 0000.0001)     2 @  3.000000000000000E+00,             /* K = 24: 25 */
(PID.TID 0000.0001)     2 @  2.000000000000000E+00,             /* K = 26: 27 */
(PID.TID 0000.0001)     4 @  1.000000000000000E+00              /* K = 28: 31 */
(PID.TID 0000.0001)     ;
(PID.TID 0000.0001) sRef =   /* Reference salinity profile ( g/kg ) */
(PID.TID 0000.0001)    31 @  3.450000000000000E+01              /* K =  1: 31 */
(PID.TID 0000.0001)     ;
(PID.TID 0000.0001) rhoRef =   /* Density vertical profile from (Ref,sRef)( kg/m^3 ) */
(PID.TID 0000.0001)                 1.023577572005954E+03,      /* K =  1 */
(PID.TID 0000.0001)                 1.023623549263207E+03,      /* K =  2 */
(PID.TID 0000.0001)                 1.023675613276342E+03,      /* K =  3 */
(PID.TID 0000.0001)                 1.024018569869809E+03,      /* K =  4 */
(PID.TID 0000.0001)                 1.024361629697283E+03,      /* K =  5 */
(PID.TID 0000.0001)                 1.024705804444866E+03,      /* K =  6 */
(PID.TID 0000.0001)                 1.025052271508737E+03,      /* K =  7 */
(PID.TID 0000.0001)                 1.025645661964391E+03,      /* K =  8 */
(PID.TID 0000.0001)                 1.025992592411289E+03,      /* K =  9 */
(PID.TID 0000.0001)                 1.026346361931734E+03,      /* K = 10 */
(PID.TID 0000.0001)                 1.026709001157942E+03,      /* K = 11 */
(PID.TID 0000.0001)                 1.027282846338663E+03,      /* K = 12 */
(PID.TID 0000.0001)                 1.027661721921800E+03,      /* K = 13 */
(PID.TID 0000.0001)                 1.028057401528922E+03,      /* K = 14 */
(PID.TID 0000.0001)                 1.028473375249018E+03,      /* K = 15 */
(PID.TID 0000.0001)                 1.028913616650366E+03,      /* K = 16 */
(PID.TID 0000.0001)                 1.029382636686713E+03,      /* K = 17 */
(PID.TID 0000.0001)                 1.029885606645691E+03,      /* K = 18 */
(PID.TID 0000.0001)                 1.030290072892818E+03,      /* K = 19 */
(PID.TID 0000.0001)                 1.030888016683447E+03,      /* K = 20 */
(PID.TID 0000.0001)                 1.031407239662327E+03,      /* K = 21 */
(PID.TID 0000.0001)                 1.032129670505891E+03,      /* K = 22 */
(PID.TID 0000.0001)                 1.032795424975157E+03,      /* K = 23 */
(PID.TID 0000.0001)                 1.033679764328331E+03,      /* K = 24 */
(PID.TID 0000.0001)                 1.034532122852911E+03,      /* K = 25 */
(PID.TID 0000.0001)                 1.035625595542812E+03,      /* K = 26 */
(PID.TID 0000.0001)                 1.036714659799745E+03,      /* K = 27 */
(PID.TID 0000.0001)                 1.038076228708180E+03,      /* K = 28 */
(PID.TID 0000.0001)                 1.039464021739831E+03,      /* K = 29 */
(PID.TID 0000.0001)                 1.041023891510315E+03,      /* K = 30 */
(PID.TID 0000.0001)                 1.042775365441382E+03       /* K = 31 */
(PID.TID 0000.0001)     ;
(PID.TID 0000.0001) dBdrRef = /* Vertical grad. of reference buoyancy [(m/s/r)^2] */
(PID.TID 0000.0001)     3 @  0.000000000000000E+00,             /* K =  1:  3 */
(PID.TID 0000.0001)                 1.981426362570402E-04,      /* K =  4 */
(PID.TID 0000.0001)                 1.701092979003860E-04,      /* K =  5 */
(PID.TID 0000.0001)                 1.458715085243869E-04,      /* K =  6 */
(PID.TID 0000.0001)                 1.249125719785483E-04,      /* K =  7 */
(PID.TID 0000.0001)                 2.099649801856568E-04,      /* K =  8 */
(PID.TID 0000.0001)                 8.792303423357168E-05,      /* K =  9 */
(PID.TID 0000.0001)                 7.484001221613001E-05,      /* K = 10 */
(PID.TID 0000.0001)                 6.358666111189054E-05,      /* K = 11 */
(PID.TID 0000.0001)                 1.054006897248987E-04,      /* K = 12 */
(PID.TID 0000.0001)                 4.344210601996791E-05,      /* K = 13 */
(PID.TID 0000.0001)                 3.656879805711143E-05,      /* K = 14 */
(PID.TID 0000.0001)                 3.069973543024333E-05,      /* K = 15 */
(PID.TID 0000.0001)                 2.570018494684971E-05,      /* K = 16 */
(PID.TID 0000.0001)                 2.145254771255852E-05,      /* K = 17 */
(PID.TID 0000.0001)                 1.785089392823324E-05,      /* K = 18 */
(PID.TID 0000.0001)                 0.000000000000000E+00,      /* K = 19 */
(PID.TID 0000.0001)                 1.329610664296088E-05,      /* K = 20 */
(PID.TID 0000.0001)                 0.000000000000000E+00,      /* K = 21 */
(PID.TID 0000.0001)                 9.975032051112675E-06,      /* K = 22 */
(PID.TID 0000.0001)                 0.000000000000000E+00,      /* K = 23 */
(PID.TID 0000.0001)                 7.572079405734685E-06,      /* K = 24 */
(PID.TID 0000.0001)                 0.000000000000000E+00,      /* K = 25 */
(PID.TID 0000.0001)                 5.849104430055921E-06,      /* K = 26 */
(PID.TID 0000.0001)                 0.000000000000000E+00,      /* K = 27 */
(PID.TID 0000.0001)                 4.627878774813460E-06,      /* K = 28 */
(PID.TID 0000.0001)     3 @  0.000000000000000E+00              /* K = 29: 31 */
(PID.TID 0000.0001)     ;
(PID.TID 0000.0001) useStrainTensionVisc= /* Use StrainTension Form of Viscous Operator */
(PID.TID 0000.0001)                   F
(PID.TID 0000.0001)     ;
(PID.TID 0000.0001) useVariableVisc = /* Use variable horizontal viscosity */
(PID.TID 0000.0001)                   T
(PID.TID 0000.0001)     ;
(PID.TID 0000.0001) useHarmonicVisc = /* Use harmonic horizontal viscosity */
(PID.TID 0000.0001)                   F
(PID.TID 0000.0001)     ;
(PID.TID 0000.0001) useBiharmonicVisc= /* Use biharmonic horiz.  viscosity */
(PID.TID 0000.0001)                   T
(PID.TID 0000.0001)     ;
(PID.TID 0000.0001) useSmag3D = /* Use isotropic 3-D Smagorinsky viscosity */
(PID.TID 0000.0001)                   F
(PID.TID 0000.0001)     ;
(PID.TID 0000.0001) viscAh  =   /* Lateral harmonic viscosity ( m^2/s ) */
(PID.TID 0000.0001)                 0.000000000000000E+00
(PID.TID 0000.0001)     ;
(PID.TID 0000.0001) viscAhMax = /* Maximum lateral harmonic viscosity ( m^2/s ) */
(PID.TID 0000.0001)                 1.000000000000000E+21
(PID.TID 0000.0001)     ;
(PID.TID 0000.0001) viscAhGrid = /* Grid dependent lateral harmonic viscosity ( non-dim. ) */
(PID.TID 0000.0001)                 0.000000000000000E+00
(PID.TID 0000.0001)     ;
(PID.TID 0000.0001) useFullLeith = /* Use Full Form of Leith Viscosity on/off flag*/
(PID.TID 0000.0001)                   F
(PID.TID 0000.0001)     ;
(PID.TID 0000.0001) useAreaViscLength = /* Use area for visc length instead of geom. mean*/
(PID.TID 0000.0001)                   T
(PID.TID 0000.0001)     ;
(PID.TID 0000.0001) viscC2leith = /* Leith harmonic visc. factor (on grad(vort),non-dim.) */
(PID.TID 0000.0001)                 0.000000000000000E+00
(PID.TID 0000.0001)     ;
(PID.TID 0000.0001) viscC2leithD = /* Leith harmonic viscosity factor (on grad(div),non-dim.)*/
(PID.TID 0000.0001)                 0.000000000000000E+00
(PID.TID 0000.0001)     ;
(PID.TID 0000.0001) viscC2LeithQG = /* QG Leith harmonic viscosity factor (non-dim.)*/
(PID.TID 0000.0001)                 0.000000000000000E+00
(PID.TID 0000.0001)     ;
(PID.TID 0000.0001) viscC2smag = /* Smagorinsky harmonic viscosity factor (non-dim.) */
(PID.TID 0000.0001)                 0.000000000000000E+00
(PID.TID 0000.0001)     ;
(PID.TID 0000.0001) viscA4  =   /* Lateral biharmonic viscosity ( m^4/s ) */
(PID.TID 0000.0001)                 0.000000000000000E+00
(PID.TID 0000.0001)     ;
(PID.TID 0000.0001) viscA4Max = /* Maximum biharmonic viscosity ( m^2/s ) */
(PID.TID 0000.0001)                 1.000000000000000E+21
(PID.TID 0000.0001)     ;
(PID.TID 0000.0001) viscA4Grid = /* Grid dependent biharmonic viscosity ( non-dim. ) */
(PID.TID 0000.0001)                 0.000000000000000E+00
(PID.TID 0000.0001)     ;
(PID.TID 0000.0001) viscC4leith = /* Leith biharm viscosity factor (on grad(vort), non-dim.)*/
(PID.TID 0000.0001)                 2.150000000000000E+00
(PID.TID 0000.0001)     ;
(PID.TID 0000.0001) viscC4leithD = /* Leith biharm viscosity factor (on grad(div), non-dim.) */
(PID.TID 0000.0001)                 2.150000000000000E+00
(PID.TID 0000.0001)     ;
(PID.TID 0000.0001) viscC4Smag = /* Smagorinsky biharm viscosity factor (non-dim) */
(PID.TID 0000.0001)                 0.000000000000000E+00
(PID.TID 0000.0001)     ;
(PID.TID 0000.0001) no_slip_sides =  /* Viscous BCs: No-slip sides */
(PID.TID 0000.0001)                   T
(PID.TID 0000.0001)     ;
(PID.TID 0000.0001) sideDragFactor = /* side-drag scaling factor (non-dim) */
(PID.TID 0000.0001)                 2.000000000000000E+00
(PID.TID 0000.0001)     ;
(PID.TID 0000.0001) viscArNr = /* vertical profile of vertical viscosity ( m^2/s )*/
(PID.TID 0000.0001)    31 @  0.000000000000000E+00              /* K =  1: 31 */
(PID.TID 0000.0001)     ;
(PID.TID 0000.0001) no_slip_bottom =  /* Viscous BCs: No-slip bottom */
(PID.TID 0000.0001)                   T
(PID.TID 0000.0001)     ;
(PID.TID 0000.0001) bottomVisc_pCell = /* Partial-cell in bottom Visc. BC */
(PID.TID 0000.0001)                   F
(PID.TID 0000.0001)     ;
(PID.TID 0000.0001) bottomDragLinear = /* linear bottom-drag coefficient ( m/s ) */
(PID.TID 0000.0001)                 0.000000000000000E+00
(PID.TID 0000.0001)     ;
(PID.TID 0000.0001) bottomDragQuadratic = /* quadratic bottom-drag coefficient (-) */
(PID.TID 0000.0001)                 2.100000000000000E-03
(PID.TID 0000.0001)     ;
(PID.TID 0000.0001) selectBotDragQuadr = /* select quadratic bottom drag options */
(PID.TID 0000.0001)                       0
(PID.TID 0000.0001)     ;
(PID.TID 0000.0001) diffKhT =   /* Laplacian diffusion of heat laterally ( m^2/s ) */
(PID.TID 0000.0001)                 0.000000000000000E+00
(PID.TID 0000.0001)     ;
(PID.TID 0000.0001) diffK4T =   /* Biharmonic diffusion of heat laterally ( m^4/s ) */
(PID.TID 0000.0001)                 0.000000000000000E+00
(PID.TID 0000.0001)     ;
(PID.TID 0000.0001) diffKhS =   /* Laplacian diffusion of salt laterally ( m^2/s ) */
(PID.TID 0000.0001)                 0.000000000000000E+00
(PID.TID 0000.0001)     ;
(PID.TID 0000.0001) diffK4S =   /* Biharmonic diffusion of salt laterally ( m^4/s ) */
(PID.TID 0000.0001)                 0.000000000000000E+00
(PID.TID 0000.0001)     ;
(PID.TID 0000.0001) diffKrNrT = /* vertical profile of vertical diffusion of Temp ( m^2/s )*/
(PID.TID 0000.0001)    31 @  0.000000000000000E+00              /* K =  1: 31 */
(PID.TID 0000.0001)     ;
(PID.TID 0000.0001) diffKrNrS = /* vertical profile of vertical diffusion of Salt ( m^2/s )*/
(PID.TID 0000.0001)    31 @  0.000000000000000E+00              /* K =  1: 31 */
(PID.TID 0000.0001)     ;
(PID.TID 0000.0001) diffKrBL79surf = /* Surface diffusion for Bryan and Lewis 79 ( m^2/s ) */
(PID.TID 0000.0001)                 0.000000000000000E+00
(PID.TID 0000.0001)     ;
(PID.TID 0000.0001) diffKrBL79deep = /* Deep diffusion for Bryan and Lewis 1979 ( m^2/s ) */
(PID.TID 0000.0001)                 0.000000000000000E+00
(PID.TID 0000.0001)     ;
(PID.TID 0000.0001) diffKrBL79scl = /* Depth scale for Bryan and Lewis 1979 ( m ) */
(PID.TID 0000.0001)                 2.000000000000000E+02
(PID.TID 0000.0001)     ;
(PID.TID 0000.0001) diffKrBL79Ho = /* Turning depth for Bryan and Lewis 1979 ( m ) */
(PID.TID 0000.0001)                -2.000000000000000E+03
(PID.TID 0000.0001)     ;
(PID.TID 0000.0001) ivdc_kappa = /* Implicit Vertical Diffusivity for Convection ( m^2/s) */
(PID.TID 0000.0001)                 0.000000000000000E+00
(PID.TID 0000.0001)     ;
(PID.TID 0000.0001) hMixCriteria=  /* Criteria for mixed-layer diagnostic */
(PID.TID 0000.0001)                -8.000000000000000E-01
(PID.TID 0000.0001)     ;
(PID.TID 0000.0001) dRhoSmall =  /* Parameter for mixed-layer diagnostic */
(PID.TID 0000.0001)                 1.000000000000000E-06
(PID.TID 0000.0001)     ;
(PID.TID 0000.0001) hMixSmooth=  /* Smoothing parameter for mixed-layer diagnostic */
(PID.TID 0000.0001)                 0.000000000000000E+00
(PID.TID 0000.0001)     ;
(PID.TID 0000.0001) eosType =  /* Type of Equation of State */
(PID.TID 0000.0001)               'JMD95Z'
(PID.TID 0000.0001)     ;
(PID.TID 0000.0001) eosRefP0 = /* Reference atmospheric pressure for EOS ( Pa ) */
(PID.TID 0000.0001)                 1.013250000000000E+05
(PID.TID 0000.0001)     ;
(PID.TID 0000.0001) selectP_inEOS_Zc = /* select pressure to use in EOS (0,1,2,3) */
(PID.TID 0000.0001)                       0
(PID.TID 0000.0001)     0= -g*rhoConst*z ; 1= pRef (from tRef,sRef); 2= Hyd P ; 3= Hyd+NH P
(PID.TID 0000.0001)     ;
(PID.TID 0000.0001) surf_pRef = /* Surface reference pressure ( Pa ) */
(PID.TID 0000.0001)                 1.013250000000000E+05
(PID.TID 0000.0001)     ;
(PID.TID 0000.0001) HeatCapacity_Cp =  /* Specific heat capacity ( J/kg/K ) */
(PID.TID 0000.0001)                 3.994000000000000E+03
(PID.TID 0000.0001)     ;
(PID.TID 0000.0001) celsius2K = /* 0 degree Celsius converted to Kelvin ( K ) */
(PID.TID 0000.0001)                 2.731500000000000E+02
(PID.TID 0000.0001)     ;
(PID.TID 0000.0001) rhoConst  = /* Reference density (Boussinesq)  ( kg/m^3 ) */
(PID.TID 0000.0001)                 1.027500000000000E+03
(PID.TID 0000.0001)     ;
(PID.TID 0000.0001) rhoFacC = /* normalized Reference density @ cell-Center (-) */
(PID.TID 0000.0001)    31 @  1.000000000000000E+00              /* K =  1: 31 */
(PID.TID 0000.0001)     ;
(PID.TID 0000.0001) rhoFacF = /* normalized Reference density @ W-Interface (-) */
(PID.TID 0000.0001)    32 @  1.000000000000000E+00              /* K =  1: 32 */
(PID.TID 0000.0001)     ;
(PID.TID 0000.0001) rhoConstFresh = /* Fresh-water reference density ( kg/m^3 ) */
(PID.TID 0000.0001)                 9.998000000000000E+02
(PID.TID 0000.0001)     ;
(PID.TID 0000.0001) gravity =   /* Gravitational acceleration ( m/s^2 ) */
(PID.TID 0000.0001)                 9.810000000000000E+00
(PID.TID 0000.0001)     ;
(PID.TID 0000.0001) gBaro =   /* Barotropic gravity ( m/s^2 ) */
(PID.TID 0000.0001)                 9.810000000000000E+00
(PID.TID 0000.0001)     ;
(PID.TID 0000.0001) gravFacC = /* gravity factor (vs surf.) @ cell-Center (-) */
(PID.TID 0000.0001)    31 @  1.000000000000000E+00              /* K =  1: 31 */
(PID.TID 0000.0001)     ;
(PID.TID 0000.0001) gravFacF = /* gravity factor (vs surf.) @ W-Interface (-) */
(PID.TID 0000.0001)    32 @  1.000000000000000E+00              /* K =  1: 32 */
(PID.TID 0000.0001)     ;
(PID.TID 0000.0001) rotationPeriod =   /* Rotation Period ( s ) */
(PID.TID 0000.0001)                 8.616400000000000E+04
(PID.TID 0000.0001)     ;
(PID.TID 0000.0001) omega =   /* Angular velocity ( rad/s ) */
(PID.TID 0000.0001)                 7.292123516990375E-05
(PID.TID 0000.0001)     ;
(PID.TID 0000.0001) f0 =   /* Reference coriolis parameter ( 1/s ) */
(PID.TID 0000.0001)                 1.000000000000000E-04
(PID.TID 0000.0001)     ;
(PID.TID 0000.0001) beta =   /* Beta ( 1/(m.s) ) */
(PID.TID 0000.0001)                 9.999999999999999E-12
(PID.TID 0000.0001)     ;
(PID.TID 0000.0001) fPrime =   /* Second coriolis parameter ( 1/s ) */
(PID.TID 0000.0001)                 0.000000000000000E+00
(PID.TID 0000.0001)     ;
(PID.TID 0000.0001) rigidLid =   /* Rigid lid on/off flag */
(PID.TID 0000.0001)                   F
(PID.TID 0000.0001)     ;
(PID.TID 0000.0001) implicitFreeSurface =   /* Implicit free surface on/off flag */
(PID.TID 0000.0001)                   T
(PID.TID 0000.0001)     ;
(PID.TID 0000.0001) freeSurfFac =   /* Implicit free surface factor */
(PID.TID 0000.0001)                 1.000000000000000E+00
(PID.TID 0000.0001)     ;
(PID.TID 0000.0001) implicSurfPress =  /* Surface Pressure implicit factor (0-1) */
(PID.TID 0000.0001)                 1.000000000000000E+00
(PID.TID 0000.0001)     ;
(PID.TID 0000.0001) implicDiv2DFlow =  /* Barot. Flow Div. implicit factor (0-1) */
(PID.TID 0000.0001)                 1.000000000000000E+00
(PID.TID 0000.0001)     ;
(PID.TID 0000.0001) uniformLin_PhiSurf = /* use uniform Bo_surf on/off flag */
(PID.TID 0000.0001)                   T
(PID.TID 0000.0001)     ;
(PID.TID 0000.0001) uniformFreeSurfLev = /* free-surface level-index is uniform */
(PID.TID 0000.0001)                   T
(PID.TID 0000.0001)     ;
(PID.TID 0000.0001) sIceLoadFac =  /* scale factor for sIceLoad (0-1) */
(PID.TID 0000.0001)                 1.000000000000000E+00
(PID.TID 0000.0001)     ;
(PID.TID 0000.0001) hFacMin =   /* minimum partial cell factor (hFac) */
(PID.TID 0000.0001)                 3.000000000000000E-01
(PID.TID 0000.0001)     ;
(PID.TID 0000.0001) hFacMinDr = /* minimum partial cell thickness ( m) */
(PID.TID 0000.0001)                 5.000000000000000E+01
(PID.TID 0000.0001)     ;
(PID.TID 0000.0001) exactConserv =  /* Exact Volume Conservation on/off flag */
(PID.TID 0000.0001)                   T
(PID.TID 0000.0001)     ;
(PID.TID 0000.0001) linFSConserveTr = /* Tracer correction for Lin Free Surface on/off flag */
(PID.TID 0000.0001)                   F
(PID.TID 0000.0001)     ;
(PID.TID 0000.0001) nonlinFreeSurf = /* Non-linear Free Surf. options (-1,0,1,2,3)*/
(PID.TID 0000.0001)                       0
(PID.TID 0000.0001)      -1,0= Off ; 1,2,3= On, 2=+rescale gU,gV, 3=+update cg2d solv.
(PID.TID 0000.0001)     ;
(PID.TID 0000.0001) hFacInf =   /* lower threshold for hFac (nonlinFreeSurf only)*/
(PID.TID 0000.0001)                 1.000000000000000E-01
(PID.TID 0000.0001)     ;
(PID.TID 0000.0001) hFacSup =   /* upper threshold for hFac (nonlinFreeSurf only)*/
(PID.TID 0000.0001)                 5.000000000000000E+00
(PID.TID 0000.0001)     ;
(PID.TID 0000.0001) select_rStar = /* r* Vertical coord. options (=0 r coord.; >0 uses r*)*/
(PID.TID 0000.0001)                       0
(PID.TID 0000.0001)     ;
(PID.TID 0000.0001) useRealFreshWaterFlux = /* Real Fresh Water Flux on/off flag*/
(PID.TID 0000.0001)                   F
(PID.TID 0000.0001)     ;
(PID.TID 0000.0001) temp_EvPrRn = /* Temp. of Evap/Prec/R (UNSET=use local T)(oC)*/
(PID.TID 0000.0001)                 1.234567000000000E+05
(PID.TID 0000.0001)     ;
(PID.TID 0000.0001) salt_EvPrRn = /* Salin. of Evap/Prec/R (UNSET=use local S)(g/kg)*/
(PID.TID 0000.0001)                 0.000000000000000E+00
(PID.TID 0000.0001)     ;
(PID.TID 0000.0001) selectAddFluid = /* option for mass source/sink of fluid (=0: off) */
(PID.TID 0000.0001)                       0
(PID.TID 0000.0001)     ;
(PID.TID 0000.0001) temp_addMass = /* Temp. of addMass array (UNSET=use local T)(oC)*/
(PID.TID 0000.0001)                 1.234567000000000E+05
(PID.TID 0000.0001)     ;
(PID.TID 0000.0001) salt_addMass = /* Salin. of addMass array (UNSET=use local S)(g/kg)*/
(PID.TID 0000.0001)                 0.000000000000000E+00
(PID.TID 0000.0001)     ;
(PID.TID 0000.0001) convertFW2Salt = /* convert F.W. Flux to Salt Flux (-1=use local S)(g/kg)*/
(PID.TID 0000.0001)                 3.500000000000000E+01
(PID.TID 0000.0001)     ;
(PID.TID 0000.0001) use3Dsolver = /* use 3-D pressure solver on/off flag */
(PID.TID 0000.0001)                   F
(PID.TID 0000.0001)     ;
(PID.TID 0000.0001) nonHydrostatic =  /* Non-Hydrostatic on/off flag */
(PID.TID 0000.0001)                   F
(PID.TID 0000.0001)     ;
(PID.TID 0000.0001) nh_Am2 = /* Non-Hydrostatic terms scaling factor */
(PID.TID 0000.0001)                 1.000000000000000E+00
(PID.TID 0000.0001)     ;
(PID.TID 0000.0001) implicitNHPress = /* Non-Hyd Pressure implicit factor (0-1)*/
(PID.TID 0000.0001)                 1.000000000000000E+00
(PID.TID 0000.0001)     ;
(PID.TID 0000.0001) selectNHfreeSurf = /* Non-Hyd (free-)Surface option */
(PID.TID 0000.0001)                       0
(PID.TID 0000.0001)     ;
(PID.TID 0000.0001) quasiHydrostatic = /* Quasi-Hydrostatic on/off flag */
(PID.TID 0000.0001)                   F
(PID.TID 0000.0001)     ;
(PID.TID 0000.0001) calc_wVelocity = /* vertical velocity calculation on/off flag */
(PID.TID 0000.0001)                   T
(PID.TID 0000.0001)     ;
(PID.TID 0000.0001) momStepping =  /* Momentum equation on/off flag */
(PID.TID 0000.0001)                   T
(PID.TID 0000.0001)     ;
(PID.TID 0000.0001) vectorInvariantMomentum= /* Vector-Invariant Momentum on/off */
(PID.TID 0000.0001)                   T
(PID.TID 0000.0001)     ;
(PID.TID 0000.0001) momAdvection =  /* Momentum advection on/off flag */
(PID.TID 0000.0001)                   T
(PID.TID 0000.0001)     ;
(PID.TID 0000.0001) momViscosity =  /* Momentum viscosity on/off flag */
(PID.TID 0000.0001)                   T
(PID.TID 0000.0001)     ;
(PID.TID 0000.0001) momImplVertAdv= /* Momentum implicit vert. advection on/off*/
(PID.TID 0000.0001)                   F
(PID.TID 0000.0001)     ;
(PID.TID 0000.0001) implicitViscosity = /* Implicit viscosity on/off flag */
(PID.TID 0000.0001)                   T
(PID.TID 0000.0001)     ;
(PID.TID 0000.0001) selectImplicitDrag= /* Implicit bot Drag options (0,1,2)*/
(PID.TID 0000.0001)                       0
(PID.TID 0000.0001)     0= Expl. ; 1= Impl. on provis. Vel ; 2= Fully Impl (with surf.P)
(PID.TID 0000.0001)     ;
(PID.TID 0000.0001) selectMetricTerms= /* Metric-Terms on/off flag (=0/1) */
(PID.TID 0000.0001)                       1
(PID.TID 0000.0001)     ;
(PID.TID 0000.0001) useNHMTerms = /* Non-Hydrostatic Metric-Terms on/off */
(PID.TID 0000.0001)                   F
(PID.TID 0000.0001)     ;
(PID.TID 0000.0001) selectCoriMap = /* Coriolis Map options (0,1,2,3)*/
(PID.TID 0000.0001)                       2
(PID.TID 0000.0001)     0= f-Plane ; 1= Beta-Plane ; 2= Spherical ; 3= read from file
(PID.TID 0000.0001)     ;
(PID.TID 0000.0001) select3dCoriScheme= /* 3-D Coriolis on/off flag (=0/1) */
(PID.TID 0000.0001)                       0
(PID.TID 0000.0001)     ;
(PID.TID 0000.0001) useCoriolis =  /* Coriolis on/off flag */
(PID.TID 0000.0001)                   T
(PID.TID 0000.0001)     ;
(PID.TID 0000.0001) useCDscheme =  /* CD scheme on/off flag */
(PID.TID 0000.0001)                   F
(PID.TID 0000.0001)     ;
(PID.TID 0000.0001) selectCoriScheme= /* Scheme selector for Coriolis-Term */
(PID.TID 0000.0001)                       0
(PID.TID 0000.0001)    = 0 : original discretization (simple averaging, no hFac)
(PID.TID 0000.0001)    = 1 : Wet-point averaging (Jamar & Ozer 1986)
(PID.TID 0000.0001)    = 2 : hFac weighted average (Angular Mom. conserving)
(PID.TID 0000.0001)    = 3 : energy conserving scheme using hFac weighted average
(PID.TID 0000.0001)     ;
(PID.TID 0000.0001) useAbsVorticity= /* V.I Works with f+zeta in Coriolis */
(PID.TID 0000.0001)                   F
(PID.TID 0000.0001)     ;
(PID.TID 0000.0001) selectVortScheme= /* V.I Scheme selector for Vorticity-Term */
(PID.TID 0000.0001)                       1
(PID.TID 0000.0001)    = 0 : enstrophy (Shallow-Water Eq.) conserving scheme by Sadourny, JAS 75
(PID.TID 0000.0001)    = 1 : same as 0 with modified hFac
(PID.TID 0000.0001)    = 2 : energy conserving scheme (used by Sadourny in JAS 75 paper)
(PID.TID 0000.0001)    = 3 : energy (general) and enstrophy (2D, nonDiv.) conserving scheme
(PID.TID 0000.0001)          from Sadourny (Burridge & Haseler, ECMWF Rep.4, 1977)
(PID.TID 0000.0001)     ;
(PID.TID 0000.0001) useJamartMomAdv= /* V.I Non-linear terms Jamart flag */
(PID.TID 0000.0001)                   F
(PID.TID 0000.0001)     ;
(PID.TID 0000.0001) upwindVorticity= /* V.I Upwind bias vorticity flag */
(PID.TID 0000.0001)                   F
(PID.TID 0000.0001)     ;
(PID.TID 0000.0001) highOrderVorticity= /* V.I High order vort. advect. flag */
(PID.TID 0000.0001)                   F
(PID.TID 0000.0001)     ;
(PID.TID 0000.0001) upwindShear= /* V.I Upwind vertical Shear advection flag */
(PID.TID 0000.0001)                   F
(PID.TID 0000.0001)     ;
(PID.TID 0000.0001) selectKEscheme= /* V.I Kinetic Energy scheme selector */
(PID.TID 0000.0001)                       0
(PID.TID 0000.0001)     ;
(PID.TID 0000.0001) momForcing =  /* Momentum forcing on/off flag */
(PID.TID 0000.0001)                   T
(PID.TID 0000.0001)     ;
(PID.TID 0000.0001) momTidalForcing = /* Momentum Tidal forcing on/off flag */
(PID.TID 0000.0001)                   T
(PID.TID 0000.0001)     ;
(PID.TID 0000.0001) momPressureForcing =  /* Momentum pressure term on/off flag */
(PID.TID 0000.0001)                   T
(PID.TID 0000.0001)     ;
(PID.TID 0000.0001) implicitIntGravWave= /* Implicit Internal Gravity Wave flag */
(PID.TID 0000.0001)                   F
(PID.TID 0000.0001)     ;
(PID.TID 0000.0001) staggerTimeStep =    /* Stagger time stepping on/off flag */
(PID.TID 0000.0001)                   T
(PID.TID 0000.0001)     ;
(PID.TID 0000.0001) doResetHFactors = /* reset thickness factors @ each time-step */
(PID.TID 0000.0001)                   F
(PID.TID 0000.0001)     ;
(PID.TID 0000.0001) multiDimAdvection =  /* enable/disable Multi-Dim Advection */
(PID.TID 0000.0001)                   T
(PID.TID 0000.0001)     ;
(PID.TID 0000.0001) useMultiDimAdvec =   /* Multi-Dim Advection is/is-not used */
(PID.TID 0000.0001)                   T
(PID.TID 0000.0001)     ;
(PID.TID 0000.0001) implicitDiffusion = /* Implicit Diffusion on/off flag */
(PID.TID 0000.0001)                   T
(PID.TID 0000.0001)     ;
(PID.TID 0000.0001) tempStepping =  /* Temperature equation on/off flag */
(PID.TID 0000.0001)                   T
(PID.TID 0000.0001)     ;
(PID.TID 0000.0001) tempAdvection = /* Temperature advection on/off flag */
(PID.TID 0000.0001)                   T
(PID.TID 0000.0001)     ;
(PID.TID 0000.0001) tempImplVertAdv = /* Temp. implicit vert. advection on/off */
(PID.TID 0000.0001)                   F
(PID.TID 0000.0001)     ;
(PID.TID 0000.0001) tempForcing  =  /* Temperature forcing on/off flag */
(PID.TID 0000.0001)                   T
(PID.TID 0000.0001)     ;
(PID.TID 0000.0001) doThetaClimRelax = /* apply SST relaxation on/off flag */
(PID.TID 0000.0001)                   T
(PID.TID 0000.0001)     ;
(PID.TID 0000.0001) tempIsActiveTr = /* Temp. is a dynamically Active Tracer */
(PID.TID 0000.0001)                   T
(PID.TID 0000.0001)     ;
(PID.TID 0000.0001) saltStepping =  /* Salinity equation on/off flag */
(PID.TID 0000.0001)                   T
(PID.TID 0000.0001)     ;
(PID.TID 0000.0001) saltAdvection = /* Salinity advection on/off flag */
(PID.TID 0000.0001)                   T
(PID.TID 0000.0001)     ;
(PID.TID 0000.0001) saltImplVertAdv = /* Sali. implicit vert. advection on/off */
(PID.TID 0000.0001)                   F
(PID.TID 0000.0001)     ;
(PID.TID 0000.0001) saltForcing  =  /* Salinity forcing on/off flag */
(PID.TID 0000.0001)                   F
(PID.TID 0000.0001)     ;
(PID.TID 0000.0001) doSaltClimRelax = /* apply SSS relaxation on/off flag */
(PID.TID 0000.0001)                   F
(PID.TID 0000.0001)     ;
(PID.TID 0000.0001) saltIsActiveTr = /* Salt  is a dynamically Active Tracer */
(PID.TID 0000.0001)                   T
(PID.TID 0000.0001)     ;
(PID.TID 0000.0001)  readBinaryPrec = /* Precision used for reading binary files */
(PID.TID 0000.0001)                      32
(PID.TID 0000.0001)     ;
(PID.TID 0000.0001) writeBinaryPrec = /* Precision used for writing binary files */
(PID.TID 0000.0001)                      32
(PID.TID 0000.0001)     ;
(PID.TID 0000.0001)  rwSuffixType =   /* select format of mds file suffix */
(PID.TID 0000.0001)                       0
(PID.TID 0000.0001)    = 0 : myIter (I10.10) ;   = 1 : 100*myTime (100th sec) ;
(PID.TID 0000.0001)    = 2 : myTime (seconds);   = 3 : myTime/360 (10th of hr);
(PID.TID 0000.0001)    = 4 : myTime/3600 (hours)
(PID.TID 0000.0001)     ;
(PID.TID 0000.0001)  globalFiles = /* write "global" (=not per tile) files */
(PID.TID 0000.0001)                   F
(PID.TID 0000.0001)     ;
(PID.TID 0000.0001)  useSingleCpuIO = /* only master MPI process does I/O */
(PID.TID 0000.0001)                   T
(PID.TID 0000.0001)     ;
(PID.TID 0000.0001)  useSingleCpuInput = /* only master process reads input */
(PID.TID 0000.0001)                   T
(PID.TID 0000.0001)     ;
(PID.TID 0000.0001) /* debLev[*]  : level of debug & auxiliary message printing */
(PID.TID 0000.0001) debLevZero =  0 ; /* level of disabled aux. msg printing */
(PID.TID 0000.0001)    debLevA =  1 ; /* level of minimum  aux. msg printing */
(PID.TID 0000.0001)    debLevB =  2 ; /* level of low aux. print (report read-file opening)*/
(PID.TID 0000.0001)    debLevC =  3 ; /* level of moderate debug prt (most pkgs debug msg) */
(PID.TID 0000.0001)    debLevD =  4 ; /* level of enhanced debug prt (add DEBUG_STATS prt) */
(PID.TID 0000.0001)    debLevE =  5 ; /* level of extensive debug printing */
(PID.TID 0000.0001) debugLevel =  /* select debug printing level */
(PID.TID 0000.0001)                       0
(PID.TID 0000.0001)     ;
(PID.TID 0000.0001)  plotLevel =  /* select PLOT_FIELD printing level */
(PID.TID 0000.0001)                       0
(PID.TID 0000.0001)     ;
(PID.TID 0000.0001) //
(PID.TID 0000.0001) // Elliptic solver(s) paramters ( PARM02 in namelist )
(PID.TID 0000.0001) //
(PID.TID 0000.0001) cg2dMaxIters =   /* Upper limit on 2d con. grad iterations  */
(PID.TID 0000.0001)                     100
(PID.TID 0000.0001)     ;
[...]
 cg2d: Sum(rhs),rhsMax =   2.50799381262823E-13  8.21215951517381E-02
 cg2d: Sum(rhs),rhsMax =  -7.75907116334906E-14  8.21966182078700E-02
 cg2d: Sum(rhs),rhsMax =   1.21083698623181E-13  8.22717572739503E-02
 cg2d: Sum(rhs),rhsMax =   1.33774935573427E-13  8.23470889867011E-02
 cg2d: Sum(rhs),rhsMax =   1.77816095181527E-13  8.24226830082507E-02
 cg2d: Sum(rhs),rhsMax =   1.55049584282807E-13  8.24985944714217E-02
 cg2d: Sum(rhs),rhsMax =   2.23016050071578E-14  8.25748645504537E-02
 cg2d: Sum(rhs),rhsMax =   2.55448440178441E-13  8.26515194996043E-02
 cg2d: Sum(rhs),rhsMax =  -5.06733544014537E-13  8.27285700692425E-02
 cg2d: Sum(rhs),rhsMax =   8.88247808639164E-14  8.28060114416982E-02
 cg2d: Sum(rhs),rhsMax =  -1.47083734081122E-13  8.28838236681894E-02
 cg2d: Sum(rhs),rhsMax =  -5.04672692525077E-13  8.29619637771913E-02
 cg2d: Sum(rhs),rhsMax =   4.58043325490820E-13  8.30403674219585E-02
 cg2d: Sum(rhs),rhsMax =   1.48984991010792E-13  8.31189751805209E-02
 cg2d: Sum(rhs),rhsMax =   2.11643202963074E-13  8.31977230588157E-02
 cg2d: Sum(rhs),rhsMax =  -1.67976743625786E-13  8.32765401668969E-02
 cg2d: Sum(rhs),rhsMax =   2.48509546274533E-13  8.33553468866768E-02
 cg2d: Sum(rhs),rhsMax =   2.20080897950226E-13  8.34340544469415E-02
 cg2d: Sum(rhs),rhsMax =  -1.78829173691497E-13  8.35125682756045E-02
 cg2d: Sum(rhs),rhsMax =   2.17235951449624E-13  8.35907905459423E-02
 cg2d: Sum(rhs),rhsMax =   2.47864229141470E-13  8.36686218272974E-02
 cg2d: Sum(rhs),rhsMax =  -5.83144643684363E-14  8.37459640250938E-02
 cg2d: Sum(rhs),rhsMax =  -9.65616475667730E-14  8.38227200282586E-02
 cg2d: Sum(rhs),rhsMax =   2.60236276972137E-13  8.38987972230106E-02
 cg2d: Sum(rhs),rhsMax =   7.78752062835508E-14  8.39741111120110E-02
 cg2d: Sum(rhs),rhsMax =  -4.48877046643759E-14  8.40485883847533E-02
 cg2d: Sum(rhs),rhsMax =  -4.97747676408977E-13  8.41221692017113E-02
 cg2d: Sum(rhs),rhsMax =  -4.08978406696292E-14  8.41948088126815E-02
 cg2d: Sum(rhs),rhsMax =  -3.13110648519910E-13  8.42664788017660E-02
 cg2d: Sum(rhs),rhsMax =  -2.41737185824320E-13  8.43371681810305E-02
 cg2d: Sum(rhs),rhsMax =   2.17839635219264E-13  8.44068844813159E-02
 cg2d: Sum(rhs),rhsMax =   2.51056120337267E-13  8.44756545611811E-02
 cg2d: Sum(rhs),rhsMax =   1.21729015756245E-13  8.45435248209925E-02
 cg2d: Sum(rhs),rhsMax =  -4.05578348683377E-14  8.46105606459717E-02
 cg2d: Sum(rhs),rhsMax =   4.76840789076505E-14  8.46768450422940E-02
 cg2d: Sum(rhs),rhsMax =   2.01602623484121E-13  8.47424765590123E-02
 cg2d: Sum(rhs),rhsMax =   2.79130885072476E-13  8.48075666312493E-02
 cg2d: Sum(rhs),rhsMax =   6.34908792207511E-15  8.48722371997619E-02
 cg2d: Sum(rhs),rhsMax =  -4.91551244152788E-14  8.49366152326554E-02
 cg2d: Sum(rhs),rhsMax =  -4.04919153762506E-13  8.50008317155800E-02
 cg2d: Sum(rhs),rhsMax =   7.08891279010970E-13  8.50650175356810E-02
 cg2d: Sum(rhs),rhsMax =  -6.84868828315643E-15  8.51293000006937E-02
 cg2d: Sum(rhs),rhsMax =  -4.67008376414668E-13  8.51937996030688E-02
 cg2d: Sum(rhs),rhsMax =   1.47833134622744E-13  8.52586271052488E-02
 cg2d: Sum(rhs),rhsMax =  -4.04030975342806E-13  8.53238810631366E-02
 cg2d: Sum(rhs),rhsMax =  -1.04784236842903E-13  8.53896455544548E-02
 cg2d: Sum(rhs),rhsMax =  -4.53068138561719E-13  8.54559899763528E-02
 cg2d: Sum(rhs),rhsMax =   2.36616282123236E-13  8.55229662189472E-02
 cg2d: Sum(rhs),rhsMax =   4.16930379110170E-13  8.55906081510403E-02
 cg2d: Sum(rhs),rhsMax =  -3.93539367760098E-13  8.56589311784588E-02
 cg2d: Sum(rhs),rhsMax =   1.32768795957361E-13  8.57279321864253E-02
 cg2d: Sum(rhs),rhsMax =   1.29042609930963E-13  8.57975898496810E-02
 cg2d: Sum(rhs),rhsMax =  -4.05779576606591E-13  8.58678653204276E-02
 cg2d: Sum(rhs),rhsMax =   1.26711141579250E-13  8.59387032658894E-02
 cg2d: Sum(rhs),rhsMax =  -3.26287608043430E-13  8.60100332153251E-02
 cg2d: Sum(rhs),rhsMax =   3.60406149368941E-13  8.60817711496906E-02
 cg2d: Sum(rhs),rhsMax =  -1.41650580154362E-13  8.61538212728943E-02
 cg2d: Sum(rhs),rhsMax =   8.82280359881804E-14  8.62260779201174E-02
 cg2d: Sum(rhs),rhsMax =  -5.69613800571744E-13  8.62984271575721E-02
 cg2d: Sum(rhs),rhsMax =   3.42101347250434E-13  8.63707500334552E-02
 cg2d: Sum(rhs),rhsMax =  -3.65096841647983E-13  8.64429247010340E-02
 cg2d: Sum(rhs),rhsMax =   3.11507764028107E-13  8.65148297375326E-02
 cg2d: Sum(rhs),rhsMax =   6.21239171216814E-14  8.65863445227776E-02
 cg2d: Sum(rhs),rhsMax =  -3.41005002013617E-13  8.72628187751804E-02
 cg2d: Sum(rhs),rhsMax =   2.31412111695306E-13  8.79850204099585E-02
 cg2d: Sum(rhs),rhsMax =  -3.25683924273790E-13  8.87099367370963E-02
 cg2d: Sum(rhs),rhsMax =  -6.30870355955437E-13  8.94340777389818E-02
 cg2d: Sum(rhs),rhsMax =  -1.60926827419416E-13  9.01542655962766E-02
 cg2d: Sum(rhs),rhsMax =  -3.05380720710957E-14  9.08678408830578E-02
 cg2d: Sum(rhs),rhsMax =  -1.10016162846449E-13  9.15731280389593E-02
 cg2d: Sum(rhs),rhsMax =  -5.43246003736897E-14  9.22678764007781E-02
 cg2d: Sum(rhs),rhsMax =  -8.70553629184201E-14  9.29502395837215E-02
 cg2d: Sum(rhs),rhsMax =   4.21364332314766E-13  9.36149266210281E-02
 cg2d: Sum(rhs),rhsMax =  -4.24563162404468E-13  9.42617904070756E-02
 cg2d: Sum(rhs),rhsMax =   3.22929183393939E-13  9.48908564755723E-02
 cg2d: Sum(rhs),rhsMax =   3.10862446895044E-13  9.55023785916575E-02
 cg2d: Sum(rhs),rhsMax =  -2.30357399821912E-13  9.60954410960625E-02
 cg2d: Sum(rhs),rhsMax =  -2.19498030862297E-13  9.66719671276566E-02
 cg2d: Sum(rhs),rhsMax =  -1.89785687165767E-13  9.72348635194090E-02
 cg2d: Sum(rhs),rhsMax =   2.41889841490206E-13  9.77877215399956E-02
 cg2d: Sum(rhs),rhsMax =   5.64201463326697E-14  9.83339145649072E-02
 cg2d: Sum(rhs),rhsMax =  -2.50077736296817E-14  9.88722185414568E-02
 cg2d: Sum(rhs),rhsMax =   4.58112714429859E-13  9.94063724153078E-02
 cg2d: Sum(rhs),rhsMax =  -3.91839338753641E-14  9.99396620787931E-02
 cg2d: Sum(rhs),rhsMax =   1.46334333539500E-13  1.00475594831955E-01
 cg2d: Sum(rhs),rhsMax =   5.89965576391904E-13  1.01017668995095E-01
 cg2d: Sum(rhs),rhsMax =  -3.21846715944929E-13  1.01569200083543E-01
 cg2d: Sum(rhs),rhsMax =   1.09551256954887E-13  1.02132827882099E-01
 cg2d: Sum(rhs),rhsMax =   3.88300502862649E-13  1.02711348681551E-01
 cg2d: Sum(rhs),rhsMax =  -2.03927152941930E-13  1.03306970384814E-01
 cg2d: Sum(rhs),rhsMax =  -9.72208424876442E-14  1.03919547815248E-01
 cg2d: Sum(rhs),rhsMax =   1.17100773522338E-13  1.04551741284187E-01
 cg2d: Sum(rhs),rhsMax =  -7.65359997600967E-15  1.05204286144418E-01
 cg2d: Sum(rhs),rhsMax =   2.25555685240408E-13  1.05876235676475E-01
 cg2d: Sum(rhs),rhsMax =   2.82725232114700E-13  1.06565297404734E-01
 cg2d: Sum(rhs),rhsMax =   4.03573008345148E-13  1.07268761708749E-01
 cg2d: Sum(rhs),rhsMax =   4.52245879634106E-13  1.07986303798780E-01
 cg2d: Sum(rhs),rhsMax =   1.82524134695328E-13  1.08718197328141E-01
 cg2d: Sum(rhs),rhsMax =  -7.52869988573934E-16  1.09463032691602E-01
 cg2d: Sum(rhs),rhsMax =  -4.72882150104326E-13  1.10219791451732E-01
 cg2d: Sum(rhs),rhsMax =   7.77850006628000E-14  1.10987313561046E-01
 cg2d: Sum(rhs),rhsMax =   6.22175921893842E-14  1.11764267531245E-01
 cg2d: Sum(rhs),rhsMax =   2.53533305460962E-13  1.12549172972458E-01
 cg2d: Sum(rhs),rhsMax =  -1.81889225903120E-13  1.13340356583364E-01
 cg2d: Sum(rhs),rhsMax =   1.21722076862341E-13  1.14135848341159E-01
 cg2d: Sum(rhs),rhsMax =   1.98938088225020E-14  1.14933034637665E-01
 cg2d: Sum(rhs),rhsMax =  -2.76671047183541E-13  1.15730419621554E-01
 cg2d: Sum(rhs),rhsMax =  -5.31449884100255E-14  1.16526561956521E-01
 cg2d: Sum(rhs),rhsMax =  -2.65364119567124E-13  1.17318090636318E-01
 cg2d: Sum(rhs),rhsMax =   2.03968786305353E-14  1.18103592067422E-01
 cg2d: Sum(rhs),rhsMax =   7.68760055613882E-14  1.18882429532059E-01
 cg2d: Sum(rhs),rhsMax =   1.09356967925578E-14  1.19653277628620E-01
 cg2d: Sum(rhs),rhsMax =   2.56843157853126E-14  1.20414232007011E-01
 cg2d: Sum(rhs),rhsMax =   7.41663674919124E-14  1.21164115899833E-01
 cg2d: Sum(rhs),rhsMax =   2.46764414457701E-13  1.21903070234586E-01
 cg2d: Sum(rhs),rhsMax =  -1.84467024988422E-13  1.22631677188063E-01
 cg2d: Sum(rhs),rhsMax =  -1.25389282290556E-13  1.23350537708052E-01
 cg2d: Sum(rhs),rhsMax =   2.49029963317327E-13  1.24058751812623E-01
 cg2d: Sum(rhs),rhsMax =  -2.40429204323434E-13  1.24754430905157E-01
 cg2d: Sum(rhs),rhsMax =   2.06851896722426E-13  1.25440185208511E-01
 cg2d: Sum(rhs),rhsMax =  -1.71664765735713E-13  1.26146302392624E-01
 cg2d: Sum(rhs),rhsMax =   6.12218609141735E-14  1.26999339118710E-01
 cg2d: Sum(rhs),rhsMax =   7.81388842518993E-14  1.27837479273602E-01
 cg2d: Sum(rhs),rhsMax =  -2.61214661012588E-14  1.28658887285732E-01
 cg2d: Sum(rhs),rhsMax =   4.14338702237060E-13  1.29462898216975E-01
 cg2d: Sum(rhs),rhsMax =   3.36560640468164E-13  1.30247610296335E-01
 cg2d: Sum(rhs),rhsMax =   1.27703403407509E-13  1.31013067640531E-01
 cg2d: Sum(rhs),rhsMax =   1.40658318326103E-13  1.31757389270587E-01
 cg2d: Sum(rhs),rhsMax =  -3.04874181455972E-13  1.32480304838042E-01
 cg2d: Sum(rhs),rhsMax =  -8.93764229292771E-14  1.33183129090293E-01
 cg2d: Sum(rhs),rhsMax =  -2.07830280762877E-13  1.33867721036017E-01
 cg2d: Sum(rhs),rhsMax =   1.01627040116625E-13  1.34536496500482E-01
 cg2d: Sum(rhs),rhsMax =   1.08951042632199E-13  1.35368110798472E-01
 cg2d: Sum(rhs),rhsMax =  -3.07670555699247E-14  1.36220425717570E-01
 cg2d: Sum(rhs),rhsMax =  -2.38555702969379E-13  1.37073522052311E-01
 cg2d: Sum(rhs),rhsMax =   3.36536354339501E-16  1.37927416512373E-01
 cg2d: Sum(rhs),rhsMax =  -1.53280166337311E-14  1.38781588965729E-01
 cg2d: Sum(rhs),rhsMax =  -1.42382633461224E-13  1.39635270320649E-01
 cg2d: Sum(rhs),rhsMax =  -1.66984481797527E-14  1.40487573404978E-01
 cg2d: Sum(rhs),rhsMax =   9.42614042376277E-14  1.41337873779045E-01
 cg2d: Sum(rhs),rhsMax =   8.03489219602938E-14  1.42187436043472E-01
 cg2d: Sum(rhs),rhsMax =  -8.79747663606878E-14  1.43034442550325E-01
 cg2d: Sum(rhs),rhsMax =  -9.34495536508706E-14  1.43878020468321E-01
 cg2d: Sum(rhs),rhsMax =  -1.40183004093686E-13  1.44718407656405E-01
 cg2d: Sum(rhs),rhsMax =  -2.14227940942280E-13  1.45555156346706E-01
 cg2d: Sum(rhs),rhsMax =   6.38863961732739E-14  1.46388227757740E-01
 cg2d: Sum(rhs),rhsMax =  -1.40703421136479E-13  1.47217880951695E-01
 cg2d: Sum(rhs),rhsMax =  -5.57574819648465E-14  1.48045617322181E-01
 cg2d: Sum(rhs),rhsMax =   1.05221387158849E-13  1.48871565681169E-01
 cg2d: Sum(rhs),rhsMax =  -8.34228519597247E-14  1.49695892882485E-01
 cg2d: Sum(rhs),rhsMax =   5.99659211175663E-14  1.50519316437454E-01
 cg2d: Sum(rhs),rhsMax =   1.43409589759003E-13  1.51341687064957E-01
 cg2d: Sum(rhs),rhsMax =  -9.33385313484081E-14  1.52162692735685E-01
 cg2d: Sum(rhs),rhsMax =   7.50233208890450E-14  1.52987471985976E-01
 cg2d: Sum(rhs),rhsMax =   3.43978318051441E-13  1.53810605525200E-01
 cg2d: Sum(rhs),rhsMax =   1.16746889933239E-13  1.54634862324125E-01
 cg2d: Sum(rhs),rhsMax =   1.43877965097516E-14  1.55461061146750E-01
 cg2d: Sum(rhs),rhsMax =   1.73736025566029E-13  1.56290561831099E-01
 cg2d: Sum(rhs),rhsMax =  -1.32793082086025E-13  1.57124102489800E-01
 cg2d: Sum(rhs),rhsMax =  -2.82725232114700E-14  1.57962446474309E-01
 cg2d: Sum(rhs),rhsMax =  -1.53627111032506E-13  1.58806672234743E-01
 cg2d: Sum(rhs),rhsMax =   9.84282100269240E-15  1.59661412735110E-01
 cg2d: Sum(rhs),rhsMax =  -2.29993107891957E-13  1.60523585958829E-01
 cg2d: Sum(rhs),rhsMax =   2.23578100477795E-13  1.61394560234686E-01
 cg2d: Sum(rhs),rhsMax =  -2.35270136705878E-13  1.62274988990949E-01
 cg2d: Sum(rhs),rhsMax =   7.47769901554562E-14  1.63165684758346E-01
 cg2d: Sum(rhs),rhsMax =  -6.19261586454201E-14  1.64064720175055E-01
 cg2d: Sum(rhs),rhsMax =  -1.32706345912226E-14  1.64970463215959E-01
 cg2d: Sum(rhs),rhsMax =  -1.14333889578155E-13  1.65882467818572E-01
 cg2d: Sum(rhs),rhsMax =   1.10663214702988E-13  1.66799932474840E-01
 cg2d: Sum(rhs),rhsMax =   3.55960053100013E-13  1.67721099178021E-01
 cg2d: Sum(rhs),rhsMax =  -6.46965120365550E-14  1.68650282791839E-01
 cg2d: Sum(rhs),rhsMax =  -1.01262748186670E-13  1.69583635354045E-01
 cg2d: Sum(rhs),rhsMax =   1.42023545701697E-13  1.70518391333791E-01
 cg2d: Sum(rhs),rhsMax =   7.59062951383171E-14  1.71454884316503E-01
 cg2d: Sum(rhs),rhsMax =   1.78317430266084E-13  1.72392869643652E-01
 cg2d: Sum(rhs),rhsMax =  -1.44778286581548E-13  1.73332169872246E-01
 cg2d: Sum(rhs),rhsMax =   1.12361508985970E-13  1.74272138176897E-01
 cg2d: Sum(rhs),rhsMax =   1.13469997287119E-13  1.75212502991206E-01
 cg2d: Sum(rhs),rhsMax =  -6.65249105802346E-14  1.76152626529849E-01
 cg2d: Sum(rhs),rhsMax =  -1.11619047338252E-13  1.77091497892023E-01
 cg2d: Sum(rhs),rhsMax =   3.37958827589802E-14  1.78027913008706E-01
 cg2d: Sum(rhs),rhsMax =   8.17193535063154E-14  1.78959181968341E-01
 cg2d: Sum(rhs),rhsMax =   1.83551090993106E-14  1.79884665453075E-01
 cg2d: Sum(rhs),rhsMax =  -7.90704307584988E-14  1.80807626643531E-01
 cg2d: Sum(rhs),rhsMax =  -5.41129641096205E-14  1.81716307065163E-01
 cg2d: Sum(rhs),rhsMax =   2.46816456161980E-14  1.82612787655247E-01
 cg2d: Sum(rhs),rhsMax =  -2.48100151534203E-14  1.83500059622437E-01
 cg2d: Sum(rhs),rhsMax =   1.50580936608691E-13  1.84380995597225E-01
 cg2d: Sum(rhs),rhsMax =  -7.40674882537817E-14  1.85256798648570E-01
 cg2d: Sum(rhs),rhsMax =   7.64839580558174E-14  1.86129812267048E-01
 cg2d: Sum(rhs),rhsMax =   6.53765236391379E-14  1.87000942348026E-01
 cg2d: Sum(rhs),rhsMax =   2.27042343259320E-13  1.87872254069578E-01
 cg2d: Sum(rhs),rhsMax =  -1.52407600428894E-13  1.88745673938981E-01
 cg2d: Sum(rhs),rhsMax =   1.11900072541360E-13  1.89615292304714E-01
 cg2d: Sum(rhs),rhsMax =  -1.01620101222721E-14  1.90480965219240E-01
 cg2d: Sum(rhs),rhsMax =  -6.73246181026599E-14  1.91349233546505E-01
 cg2d: Sum(rhs),rhsMax =   1.59773236307892E-13  1.92216602044739E-01
 cg2d: Sum(rhs),rhsMax =  -3.41497663480794E-14  1.93077332357995E-01
 cg2d: Sum(rhs),rhsMax =   4.23671514537816E-14  1.93934976347458E-01
 cg2d: Sum(rhs),rhsMax =  -4.16021384008758E-14  1.94790185438015E-01
 cg2d: Sum(rhs),rhsMax =  -1.14261031192164E-13  1.95644948048075E-01
 cg2d: Sum(rhs),rhsMax =   8.97216329009964E-14  1.96501202021555E-01
 cg2d: Sum(rhs),rhsMax =  -8.70831184940357E-16  1.97363921879551E-01
 cg2d: Sum(rhs),rhsMax =   3.00072466874468E-14  1.98235393240920E-01
 cg2d: Sum(rhs),rhsMax =   1.52452703239270E-13  1.99118069657611E-01
 cg2d: Sum(rhs),rhsMax =  -2.12552198064486E-13  2.00021079817217E-01
 cg2d: Sum(rhs),rhsMax =  -1.66627128761476E-13  2.00935812786117E-01
 cg2d: Sum(rhs),rhsMax =   1.81151968425830E-13  2.01865401738653E-01
 cg2d: Sum(rhs),rhsMax =   3.03186295513846E-13  2.02810318226196E-01
 cg2d: Sum(rhs),rhsMax =  -3.95083271653718E-14  2.03771281964376E-01
 cg2d: Sum(rhs),rhsMax =   5.37937749900408E-15  2.04746965939012E-01
 cg2d: Sum(rhs),rhsMax =   1.33244110189779E-14  2.05737447464693E-01
 cg2d: Sum(rhs),rhsMax =  -1.40207290222349E-13  2.06734184996921E-01
 cg2d: Sum(rhs),rhsMax =  -8.78758871225571E-14  2.07733570540009E-01
 cg2d: Sum(rhs),rhsMax =  -4.89018547877862E-14  2.08739702763837E-01
 cg2d: Sum(rhs),rhsMax =  -1.93099009004882E-13  2.09750897913303E-01
 cg2d: Sum(rhs),rhsMax =   6.77079919908508E-14  2.10760162253918E-01
 cg2d: Sum(rhs),rhsMax =   6.85475981532235E-14  2.11769029543949E-01
 cg2d: Sum(rhs),rhsMax =  -5.00779973044985E-14  2.12776555286776E-01
 cg2d: Sum(rhs),rhsMax =   2.19713136573318E-13  2.13779574494391E-01
 cg2d: Sum(rhs),rhsMax =  -9.65061364155417E-14  2.14776289483012E-01
 cg2d: Sum(rhs),rhsMax =  -1.04916075827077E-14  2.15766091678896E-01
 cg2d: Sum(rhs),rhsMax =   7.31567584288939E-14  2.16746983042387E-01
 cg2d: Sum(rhs),rhsMax =   6.05349104176867E-14  2.17717558793262E-01
 cg2d: Sum(rhs),rhsMax =   6.08020578329871E-15  2.18676137465941E-01
 cg2d: Sum(rhs),rhsMax =   1.70020247880487E-14  2.19621208347011E-01
 cg2d: Sum(rhs),rhsMax =   4.13783590724748E-14  2.20550869209191E-01
 cg2d: Sum(rhs),rhsMax =  -1.97140914703908E-13  2.21457505629811E-01
 cg2d: Sum(rhs),rhsMax =  -5.03295322085151E-14  2.22345807329735E-01
 cg2d: Sum(rhs),rhsMax =   5.86093673593524E-14  2.23202995852016E-01
 cg2d: Sum(rhs),rhsMax =  -7.90860432697826E-15  2.24037292040584E-01
 cg2d: Sum(rhs),rhsMax =  -3.87363752185621E-14  2.24855329898733E-01
 cg2d: Sum(rhs),rhsMax =   2.12992817827384E-13  2.25661402913545E-01
 cg2d: Sum(rhs),rhsMax =  -8.00678967571855E-14  2.26459433328603E-01
 cg2d: Sum(rhs),rhsMax =  -1.69829428298129E-14  2.27251555910279E-01
 cg2d: Sum(rhs),rhsMax =  -1.36023137198293E-13  2.28042055022353E-01
 cg2d: Sum(rhs),rhsMax =   6.83463702300102E-14  2.28833886267076E-01
 cg2d: Sum(rhs),rhsMax =  -1.02751140929058E-13  2.29628908913302E-01
 cg2d: Sum(rhs),rhsMax =   8.61220816883446E-14  2.30430948295318E-01
 cg2d: Sum(rhs),rhsMax =   6.62490895475543E-15  2.31243512352638E-01
 cg2d: Sum(rhs),rhsMax =  -1.19154686117895E-13  2.32063659455671E-01
 cg2d: Sum(rhs),rhsMax =  -1.15992285221189E-13  2.32873029671701E-01
 cg2d: Sum(rhs),rhsMax =   7.21176590667838E-14  2.33681986141631E-01
 cg2d: Sum(rhs),rhsMax =   2.18523116268798E-13  2.34493555572516E-01
 cg2d: Sum(rhs),rhsMax =  -4.97241137153992E-14  2.35310913846149E-01
 cg2d: Sum(rhs),rhsMax =   1.07861636289286E-13  2.36136122236097E-01
 cg2d: Sum(rhs),rhsMax =  -7.14116266120612E-14  2.36968904773791E-01
 cg2d: Sum(rhs),rhsMax =  -4.00790511889682E-14  2.37812709610496E-01
 cg2d: Sum(rhs),rhsMax =  -3.11757564208648E-13  2.38671398190813E-01
 cg2d: Sum(rhs),rhsMax =  -2.27663374263720E-13  2.39548824161145E-01
 cg2d: Sum(rhs),rhsMax =   4.08891670522493E-14  2.40457450861345E-01
 cg2d: Sum(rhs),rhsMax =  -1.91974908192449E-13  2.41380116884901E-01
 cg2d: Sum(rhs),rhsMax =  -1.89468232769663E-13  2.42323651165585E-01
 cg2d: Sum(rhs),rhsMax =  -1.06590083981395E-13  2.43289061000144E-01
 cg2d: Sum(rhs),rhsMax =   6.69447136614210E-14  2.44274870437988E-01
 cg2d: Sum(rhs),rhsMax =  -1.12160281062756E-13  2.45278662999145E-01
 cg2d: Sum(rhs),rhsMax =   1.68337566108789E-14  2.46297599109443E-01
 cg2d: Sum(rhs),rhsMax =  -1.36234773462363E-13  2.47328212976139E-01
 cg2d: Sum(rhs),rhsMax =   1.32393228324812E-13  2.48365490234828E-01
 cg2d: Sum(rhs),rhsMax =   8.65193333643433E-14  2.49400888144495E-01
 cg2d: Sum(rhs),rhsMax =   1.53891656362592E-13  2.50428007072140E-01
 cg2d: Sum(rhs),rhsMax =   1.22731685925359E-14  2.51449189814072E-01
 cg2d: Sum(rhs),rhsMax =  -1.27938458438503E-13  2.52459531180862E-01
 cg2d: Sum(rhs),rhsMax =  -3.13143608265953E-14  2.53455745621751E-01
 cg2d: Sum(rhs),rhsMax =  -3.63797533764476E-14  2.54435888419866E-01
 cg2d: Sum(rhs),rhsMax =  -1.27523859527745E-13  2.55396922725465E-01
 cg2d: Sum(rhs),rhsMax =   1.22238157096444E-13  2.56338140846133E-01
 cg2d: Sum(rhs),rhsMax =   6.16390619101459E-14  2.57262032657510E-01
 cg2d: Sum(rhs),rhsMax =  -2.25791607633141E-13  2.58169174839958E-01
 cg2d: Sum(rhs),rhsMax =  -1.24110791088761E-13  2.59052170110647E-01
 cg2d: Sum(rhs),rhsMax =  -6.67001176513082E-16  2.59910260935140E-01
 cg2d: Sum(rhs),rhsMax =   5.33106545019812E-14  2.60743030192341E-01
 cg2d: Sum(rhs),rhsMax =  -4.99704444489879E-14  2.61734845475887E-01
 cg2d: Sum(rhs),rhsMax =  -3.44273221042357E-13  2.62779505148060E-01
 cg2d: Sum(rhs),rhsMax =  -1.35023069114393E-13  2.63822446345732E-01
 cg2d: Sum(rhs),rhsMax =  -1.05035771746920E-13  2.64869060878078E-01
 cg2d: Sum(rhs),rhsMax =  -1.19626530903361E-13  2.65911415995191E-01
 cg2d: Sum(rhs),rhsMax =   1.06231863583606E-13  2.66952267505113E-01
 cg2d: Sum(rhs),rhsMax =   2.92385907152415E-13  2.67991911886115E-01
 cg2d: Sum(rhs),rhsMax =   1.62370117351429E-13  2.69031171282007E-01
 cg2d: Sum(rhs),rhsMax =  -5.21440529643868E-14  2.70071306613549E-01
 cg2d: Sum(rhs),rhsMax =  -4.13957063072345E-14  2.71116938242481E-01
 cg2d: Sum(rhs),rhsMax =  -8.98985746955461E-14  2.72168751817501E-01
 cg2d: Sum(rhs),rhsMax =  -3.19570758744447E-14  2.73227340391380E-01
